LAMMPS (29 Sep 2021 - Update 2)
#RDF

units		lj
boundary	p p p
atom_style	atomic

lattice		fcc 0.7
Lattice spacing in x,y,z = 1.7878071 1.7878071 1.7878071
region		box block 0 6 0 6 0 6
create_box	1 box
Created orthogonal box = (0.0000000 0.0000000 0.0000000) to (10.726842 10.726842 10.726842)
create_atoms	1 box
Created 864 atoms
mass		1 1.0

velocity	all create $T 87287 loop geom mom yes rot yes
velocity	all create 1 87287 loop geom mom yes rot yes
reset_timestep	0
timestep	0.001
pair_style	lj/cut 2.5
pair_coeff	1 1 1.0 1.0 2.5

neighbor	0.3 bin
neigh_modify	every 20 delay 0 check no
thermo		100

#Equilibration

fix		thermos all nvt temp $T $T 1.0
fix		thermos all nvt temp 1 $T 1.0
fix		thermos all nvt temp 1 1 1.0
run		50000
  update every 20 steps, delay 0 steps, check no
Step Temp E_pair E_mol TotEng Press
0            1   -5.2272486            0   -3.7289847   -4.5808285
Averages over the last 251 of 501 rows, steps 25000 to 50000:
Temp E_pair E_mol TotEng Press
0.993603 -4.52255 0 -3.03387 0.511797
Loop time of 7.43962 on 4 procs for 50000 steps with 864 atoms

unfix 	thermos

fix 	1 all nve

run 	20000
Step Temp E_pair E_mol TotEng Press
50000   0.98207318   -4.5428829            0   -3.0714781   0.53023525
Averages over the last 101 of 201 rows, steps 60000 to 70000:
Temp E_pair E_mol TotEng Press
0.976097 -4.53438 0 -3.07193 0.435968
Loop time of 2.90994 on 4 procs for 20000 steps with 864 atoms

compute 1 all msd
compute 2 all vacf

thermo_style custom c_1[4] c_2[4]
thermo 100

run 10000
c_1[4] c_2[4]
           0    2.9238987
 0.025461321    1.2569163
 0.075957987   0.12384672
  0.12984602   0.03071226
  0.18682291  0.074979554
  0.24601631  0.067421465
   0.3076127  0.046926116
  0.37137106 -0.028567055
   0.4310022  0.090867312
  0.49038826  0.062710248
  0.55363168  0.014447132
  0.61729336  -0.03527349
  0.67339398 -0.065162513
  0.72919549 -0.075271559
  0.78015001 -0.023889118
  0.83193123  0.050252665
    0.896312    0.1214593
  0.96035973  0.065557554
   1.0293401 0.0035495186
   1.1006228 -0.011970812
   1.1646405 -0.053156774
   1.2331526 -0.012171924
   1.3080854  0.092358534
   1.3801208  0.023945353
   1.4501282 -0.013351503
   1.5381036   0.05965946
   1.6178251  0.019937493
   1.6902061  0.013063291
   1.7632047 -0.061472102
   1.8344525  0.015114475
   1.9015176  0.090861869
    1.967193 -0.022087721
   2.0341304 -0.010796226
   2.0964067  0.098861621
   2.1524494  0.097409104
   2.2113127 -0.063868591
   2.2812865  0.024057799
   2.3460165 0.0056719854
   2.4044751  0.080209388
   2.4690426   0.09957613
   2.5285187 -0.008295681
   2.5868004  -0.01200655
    2.653441 -0.051153026
   2.7304649 -0.043717974
   2.8030671 -0.0058267968
   2.8610769 -0.0097985862
   2.9163609 -0.040806106
   2.9703665 -0.0079137284
    3.017441  0.025504476
   3.0693438  0.056857624
   3.1414422 -0.022381009
   3.2191238  -0.07550875
   3.2720661  0.047511874
   3.3216216    0.0269462
   3.3695771  0.024331045
   3.4205362 -0.00080441161
   3.4787515 -0.056010709
   3.5378759 -0.032166691
   3.6052407   0.14437775
    3.668724  0.027832548
   3.7171639 0.0024982953
   3.7785788   0.11972891
   3.8304933  0.062865504
   3.8683169   0.08331997
   3.9141436  0.052144117
   3.9590387  0.060933732
   3.9990326 -0.025640346
   4.0432988  0.052307429
   4.1115781  0.017528931
   4.1811624 0.0017998744
   4.2280825  0.023173411
   4.2861481  0.037406507
   4.3533919 -0.0046167448
   4.4069194 -0.067294829
   4.4672502 -0.053276514
   4.5332987   0.01543902
   4.6030799  0.031451851
   4.6740536  0.067212236
   4.7645735  -0.04980013
   4.8429361 -0.081748762
    4.915035  0.064572834
   4.9845406  0.033020716
   5.0312455  0.061050109
   5.0648403 -0.025105339
   5.1075206 0.0091620216
   5.1680707  0.060030286
   5.2131199  0.079663635
   5.2561431  0.047736863
   5.2938454 -0.062402756
   5.3357188 -0.0048797136
   5.4015033  -0.07877167
   5.4557513 0.0073838148
   5.5058177  0.075341404
   5.5543101 -0.030590343
   5.6071258 -0.093237325
   5.6760578 -0.012633445
   5.7390629  0.034051627
   5.8158528 -0.0096117213
   5.8918262 -0.021547853
   5.9751165 -0.024740311
    6.028123 -0.016105082
Loop time of 1.44989 on 4 procs for 10000 steps with 864 atoms
