LAMMPS (29 Sep 2021 - Update 2)
#RDF

units		lj
boundary	p p p
atom_style	atomic

lattice		fcc 0.7
Lattice spacing in x,y,z = 1.7878071 1.7878071 1.7878071
region		box block 0 10 0 10 0 10
create_box	1 box
Created orthogonal box = (0.0000000 0.0000000 0.0000000) to (17.878071 17.878071 17.878071)
create_atoms	1 box
Created 4000 atoms
mass		1 1.0

velocity	all create $T 87287 loop geom mom yes rot yes
velocity	all create 1.0 87287 loop geom mom yes rot yes

pair_style	lj/cut 2.5
pair_coeff	1 1 1.0 1.0 2.5

neighbor	0.3 bin
neigh_modify	every 20 delay 0 check no
thermo		100

#Equilibration

fix		thermos all nvt temp $T $T 1.0
fix		thermos all nvt temp 1.0 $T 1.0
fix		thermos all nvt temp 1.0 1.0 1.0
run		20000
  update every 20 steps, delay 0 steps, check no
Step Temp E_pair E_mol TotEng Press
0            1   -5.2272486            0   -3.7276236   -4.5801933
Averages over the last 101 of 201 rows, steps 10000 to 20000:
Temp E_pair E_mol TotEng Press
1.00211 -4.51622 0 -3.01344 0.547568
Loop time of 15.1897 on 4 procs for 20000 steps with 4000 atoms

unfix 	thermos

fix 	1 all nve

run 	20000
Step Temp E_pair E_mol TotEng Press
20000    1.0006981   -4.5202948            0   -3.0196229   0.53124201
Averages over the last 101 of 201 rows, steps 30000 to 40000:
Temp E_pair E_mol TotEng Press
0.991803 -4.52289 0 -3.03556 0.512882
Loop time of 14.9947 on 4 procs for 20000 steps with 4000 atoms

compute 1 all msd
compute 2 all vacf

dump		vel all custom  1000 dump.* id x y z vx vy vz

thermo_style custom c_1[4] c_2[4]
thermo 100

run 40000
c_1[4] c_2[4]
           0    2.9679575
  0.25650891  0.059078135
  0.56222668  0.043655157
    0.885888 -0.017873798
   1.2224118 -0.00068736872
   1.5327733  -0.01604647
   1.8707615  0.032625077
   2.2097832  0.022369406
   2.5555976 0.0059658492
   2.9063483  0.041468286
   3.2593669 -0.0002887611
   3.6155816   -0.0299928
   3.9580438  0.020515242
   4.3177439 -0.017866952
   4.6892276  0.016073989
   5.0176981 -0.005754978
   5.3479252  0.062996956
   5.6707391  0.054458117
   5.9956018  0.014860794
   6.3705043 0.0059699157
   6.7121219  0.036890063
   7.0206778 -0.025482274
   7.3364659 -0.024011352
   7.6564823 -0.015939811
   7.9885964  -0.03607951
   8.3300809   0.03666296
   8.6106482  0.037785795
   8.9196465  0.003954687
   9.2130781  0.040084795
   9.5291344 -0.013278999
   9.8607641 -0.032156392
   10.189619 -0.017011517
   10.530523 -0.037658992
   10.857276  0.028498732
   11.209599  0.048489677
   11.568827 -0.020815197
   11.925399 -0.019630636
   12.268516  0.012753779
    12.58884 -0.017234569
   12.874426  0.035576925
   13.238454 0.0083485797
    13.60795 -0.039777392
   13.937798 -0.021315259
   14.230231 -0.027601419
   14.547147 -0.0045177408
   14.850777 -0.029252678
   15.191168 -0.015415048
   15.531966 -0.024054754
   15.917718 0.0013686514
   16.320804 -0.036319266
   16.680505   0.06944965
   17.059507  0.062560005
   17.424775  0.028934127
   17.788375  -0.04313614
   18.101316 0.0069071392
   18.512521  0.023031351
   18.898811 -0.0078709368
   19.299343  0.012826451
   19.660012  0.035746287
   20.027151 -0.029332273
   20.341683  0.062608565
   20.717219  0.016556311
   21.057238 -0.013439799
   21.394192  0.017115999
   21.759218 -0.0085802046
   22.018297  0.052214376
   22.356993 -0.027728756
    22.65251 -0.00072516169
   22.909484 -0.016088823
   23.218574 -0.019500556
   23.444628 -0.019187465
   23.710025  -0.06081574
   24.028743 -0.034031851
    24.38068 -0.022513997
   24.717464 -0.053860429
   24.966384  0.060280844
   25.389771  0.053844755
   25.774021 -0.015812119
    26.13232 -0.017848255
   26.473766  0.027517162
   26.816502 -0.031649693
   27.215637  0.034142819
   27.573763  -0.03280212
   27.875775  0.026002863
   28.227275 -0.0082286448
   28.559307 -0.017513804
   28.919559 -0.0036599306
   29.292559 -0.041577668
    29.59599 -0.030504988
   29.854185 -0.003256335
   30.180414  0.069287751
   30.589916  0.022998013
   30.898924  0.032062032
   31.218241 -0.0052576805
   31.537217 -0.034689557
   31.719191 -0.0029941804
    32.10503  0.012881715
   32.435905 0.0086088372
   32.787642 -0.024181706
   33.101596 0.0010640737
   33.423357 -0.025497232
   33.814335  0.047319338
   34.111382 0.0096185719
   34.451061  0.028411859
   34.846705   0.01294637
   35.187464 -0.00090909669
   35.511964  0.016669878
   35.956967  0.062236932
   36.281125   0.03555828
    36.52229 -0.014227838
   36.810225 -0.041057064
   37.090916 -0.038035952
    37.38705  0.015486612
   37.738666 -0.048950423
   38.050761  0.067239632
    38.43963 -0.0069212608
   38.718826 -0.029396826
   39.020223 -0.028608451
   39.303693 -0.050172448
   39.694547 0.0024222268
   40.043098  0.012913983
   40.490481  0.026158572
   40.811784 -0.015406085
   41.235252 -0.030551921
   41.657798 -0.024313237
   42.019895  0.027016157
   42.324335 -0.035507569
   42.667502  0.030484546
   42.920371  0.051807175
   43.384715 0.00093262461
   43.769538   0.02481712
   44.139125 -0.0036687725
   44.461909 -0.018156322
   44.757744  0.018861655
   45.029235 0.0069432005
    45.28361 -0.0015323133
   45.508381 -0.026405422
   45.823349 -0.024105777
   46.232369 -0.029690743
   46.687231 -0.026553702
   47.073045  0.014126194
   47.499097 -0.0039025392
   47.903961  0.013191371
   48.323374  0.022519147
   48.656337 0.00072317649
   49.019295  0.017637578
   49.342185 -0.020374993
   49.659907 -0.027835592
   49.911439  0.017308729
   50.151801 -0.031200137
   50.535968 -0.049712397
   50.912976 -0.010857572
   51.288048 -0.014585579
   51.568764   0.02555213
   51.910791 -0.014241376
   52.210928  0.032615078
   52.463062  0.028851622
   52.829849  0.032168384
   53.233697 -0.034108083
   53.681379  0.032274971
   54.061948 -0.012633976
   54.474416  0.043266805
   54.866079 -0.012633357
   55.383281 -0.049107975
   55.781656 -0.0087671243
   56.102312 0.0071409452
   56.340257 -0.012510889
   56.623892  0.044565229
   56.981574 -0.041580223
   57.357507  0.019560217
   57.706363 -0.029623349
   57.895609  0.034653046
   58.170417  0.026330905
   58.435703  0.013379889
   58.831627 -0.031326865
   59.294008 -0.019467341
   59.674222  0.030468098
   59.984269 -0.010053666
   60.414319  0.015339424
    60.70855  -0.11021567
   61.076521 -0.021341165
   61.562699  0.019249339
   61.857376 -0.041870051
   62.224904  -0.00761787
   62.528194 0.0050524173
   62.899381 -0.013904745
   63.219783 -0.015358747
   63.586112  0.027131396
     63.9056 -0.012012309
   64.266329  0.038335524
   64.622568  0.012463306
    64.92125 -0.027517857
   65.128886 -0.0032589613
   65.379489 -0.00062469978
   65.804851  0.010953124
   66.134092 -0.0019088941
   66.496037 -0.013492205
   66.950157  0.046465495
   67.188763 -0.0042931251
   67.427871  0.015746352
   67.762247 0.00057359639
   68.210688  0.045388423
   68.488731 -0.010748104
   68.757395  0.019750022
    69.20978 -0.055621288
   69.559124 0.0092541331
   69.805607 -0.0042068196
   70.190206 0.0086561398
   70.652131 -0.035414191
   70.923843  0.017502991
   71.264804  0.031516858
   71.495644  0.020780947
   71.853157 -0.013041707
   72.316148 -0.0080970658
   72.688175 -0.0098481307
    73.10159 0.0049387608
   73.513978 0.0065643977
   73.911432   0.02299618
   74.459854 -0.0075286673
   74.754522  0.020097825
   75.165121 -0.020908171
   75.589948 -0.041054191
   75.932763 -0.023745402
   76.287027 0.0093917675
   76.804258 -0.019621995
   77.230505   0.04897539
   77.631806 -0.010233874
   77.928185  0.054065815
   78.222087 -0.0083831917
   78.647826 -0.057408858
   78.973562 -0.050740794
    79.43092 -0.027623539
   79.742299 -0.021661113
   80.234116   0.04084125
   80.711361    0.0227019
   81.124904  0.012874655
   81.539543 -0.030185124
   81.958011 0.0051555266
   82.382588 -0.0029315785
   82.924446   0.03303221
   83.476467  0.018059772
   83.935089 0.0019448089
   84.230652 -0.015828959
   84.678826 -0.017730753
   85.001438  0.072642707
   85.309073  0.050635348
   85.792672 0.0016548529
   86.102101  -0.03306099
   86.481254 0.0063847969
   86.892431 -0.018054584
   87.242816 -0.021182804
   87.436275  0.017768052
   87.690589 -0.012620632
   88.110305 -0.033427474
   88.524972 -0.036773764
   88.852291 -0.031592499
   89.165643 -0.015593083
   89.548746 -0.049530571
   90.064996  0.021883203
   90.526121 -0.0036450196
   90.967903  0.014754652
   91.201572 -0.042357918
   91.634957   0.01479406
   92.002146 -0.033710156
   92.299821  0.015553631
   92.603563 0.0099560613
   92.913798 -0.016258592
   93.308749 -0.045030867
    93.64896 -0.0095708178
    93.81567 0.0064301035
    94.07561 -0.024814122
   94.520398 0.0025393199
   94.879193   0.01455758
   95.138884 -0.0035826629
   95.413316 -0.035265175
   95.769419  0.035376913
   96.108506   0.02267437
   96.586235 -0.015398302
   96.840679 0.0063063687
   97.221214  0.026626936
   97.572541  0.012454029
    98.08877 -0.056181546
   98.461593  0.024633261
   98.615546 -0.022826136
   98.985257  0.070480588
   99.545499 -0.050714411
   99.894255  0.064204961
   100.03684 0.0049607866
   100.20205 -0.011243394
   100.45629 0.0059693909
   100.69515 -0.014534862
   101.07947 -0.021721145
    101.5096 -0.027721579
   101.88145 -0.014204377
   102.21324 -0.015503042
   102.55259 -0.039346945
   102.91596  0.015112887
    103.3689  0.041643555
   103.73408  0.022425236
   103.95855 -0.011485829
   104.19519 -0.030887864
   104.40791 -0.020117557
   104.79824  -0.01665167
    104.9417 -0.019110121
   105.36308 -0.031175755
   105.65874 -0.046989595
   105.97826  -0.01109066
   106.29634 -0.0094723698
   106.60348 -0.020675065
   106.92089 -0.057128018
   107.17294 -0.039500189
   107.43361 -0.025697246
      107.85  0.010327369
   108.22695  0.029509567
    108.6149 -0.056248006
   109.07052  0.026504526
   109.39607  0.007459123
   109.72264  0.011558379
   109.98841 0.0070144585
   110.24307  0.012346442
   110.61097 -0.022087389
   111.00467  0.013662265
   111.30462 0.0071434623
   111.48981 0.0091445458
   111.88702  0.025956155
   112.10246  0.024802124
   112.56039  0.038458981
   113.03562 -0.0068633357
   113.65971  0.011630112
   114.18509 -0.028688661
   114.53684 -0.038507692
   114.90617  0.023620107
   115.30204 -0.0085012471
   115.65611 -0.061433061
   115.94065  0.025609024
   116.62435 -0.015607378
   117.11195 -0.010746024
    117.4564 -0.040233985
   117.68227 -0.038814972
   117.94372 -0.0034119818
   118.25723  0.014928466
   118.55448  0.010342744
   118.83901  0.011366334
   119.05023  -0.03870928
   119.65146  0.035883951
    120.0396 -0.024929579
   120.38027  0.011392936
   120.75282 0.0069683139
   121.08277 -0.035686493
   121.45794 -0.043676485
   121.71171 0.0055810542
   122.10359   -0.0101105
   122.59342  0.006541462
   122.92159 -0.037852809
   123.34217 0.0034038693
   123.59735    0.0419802
   123.97116 -0.003065624
   124.30506 0.0075694192
   124.58661   0.01362505
   124.98032 -0.0071380544
    125.3949 0.00087441859
   125.68998 -0.045854777
   125.91976  0.014971622
   126.31356 0.0037871642
    126.8043 -0.045287679
   126.99853 0.0023583781
   127.35211 -0.0056587035
    127.7685 -0.030726746
   128.03083 0.0022157068
   128.09222 0.0023210902
   128.57294  0.012400235
   128.81546  0.033395115
   129.08154  0.018963975
    129.4246 -0.044718458
    129.6709  -0.02678269
   130.28197  0.026760169
    130.7633 -0.021645957
     131.199  0.026225505
   131.67253 -0.0055077084
    132.1492  0.021257037
    132.4686  0.044490589
   132.65128 -0.0011096506
   133.07965  0.052792298
   133.45177  0.012516825
   133.80997 -0.031901286
   134.27361 0.0042384831
   134.69935  0.012951169
   135.14346 -0.018985962
   135.55877 -0.016772674
   136.16884 -0.031886159
   136.60711  0.027384027
   136.98364 -0.021439397
   137.36947  0.031784319
   137.66043 -0.013349517
   138.06371 -0.028480577
    138.2017 0.0092939166
   138.47299 -0.023266166
   138.83684  -0.02386477
    139.1402  0.025402894
   139.50369 0.0076236037
   139.80947  0.020152089
