LAMMPS (29 Sep 2021 - Update 2)
#RDF

units		lj
boundary	p p p
atom_style	atomic

lattice		fcc 1
Lattice spacing in x,y,z = 1.5874011 1.5874011 1.5874011
region		box block 0 6 0 6 0 6
create_box	1 box
Created orthogonal box = (0.0000000 0.0000000 0.0000000) to (9.5244063 9.5244063 9.5244063)
create_atoms	1 box
Created 864 atoms
mass		1 1.0

velocity	all create $T 87287 loop geom mom yes rot yes
velocity	all create 0.7 87287 loop geom mom yes rot yes
reset_timestep	0
timestep	0.001
pair_style	lj/cut 2.5
pair_coeff	1 1 1.0 1.0 2.5

neighbor	0.3 bin
neigh_modify	every 20 delay 0 check no
thermo		100

#Equilibration

fix		thermos all nvt temp $T $T 1.0
fix		thermos all nvt temp 0.7 $T 1.0
fix		thermos all nvt temp 0.7 0.7 1.0
run		20000
  update every 20 steps, delay 0 steps, check no
Step Temp E_pair E_mol TotEng Press
0          0.7   -7.7615881            0   -6.7128034    -2.694385
Averages over the last 101 of 201 rows, steps 10000 to 20000:
Temp E_pair E_mol TotEng Press
0.702525 -6.90681 0 -5.85424 2.38496
Loop time of 3.93427 on 4 procs for 20000 steps with 864 atoms

unfix 	thermos

fix 	1 all nve

run 	20000
Step Temp E_pair E_mol TotEng Press
20000   0.71332179   -6.9062839            0   -5.8375397    2.3746128
Averages over the last 101 of 201 rows, steps 30000 to 40000:
Temp E_pair E_mol TotEng Press
0.707725 -6.89839 0 -5.83804 2.43704
Loop time of 3.84708 on 4 procs for 20000 steps with 864 atoms

compute 1 all msd
compute 2 all vacf

thermo_style custom c_1[4] c_2[4]
thermo 100

run 10000
c_1[4] c_2[4]
           0    2.1592387
 0.015746014  -0.19973661
 0.032814881  -0.86568924
  0.03474533 -0.085960318
 0.032358108 -0.076123131
 0.030627831   0.15401806
 0.030718119 -0.010726091
 0.032185042  -0.10588272
 0.033661923  0.042742707
 0.033708028  0.039349556
 0.033363549 0.0095388933
 0.032435804  -0.03869959
 0.031238106 -0.050839509
 0.030409677  0.088106567
 0.030901016 -0.014188631
 0.031608461  0.011776328
 0.030709775 0.0044137559
 0.029314415  0.042470069
 0.028724371 -0.022461527
 0.028072842 -0.043900013
 0.027740297  0.022725437
  0.02944678  0.014806544
 0.030029204   0.06757026
 0.028778237 -0.021317247
 0.028506372 -0.044932896
 0.029359057  -0.03044786
 0.030403618 -0.017901501
 0.031607184 0.0066555413
  0.03045273 -0.010488371
 0.028692959 -0.061174404
 0.028606968  0.058547076
 0.029806609 0.0050318761
  0.03047306 -0.0079626179
 0.029544312 0.0025596419
 0.029007302  -0.04169148
 0.029598101  0.064923105
 0.030058116 0.0082556301
  0.02906705 -0.071977145
 0.028910676   0.07015079
  0.02994423  0.038912731
 0.029864993 -0.095033249
 0.029467779   0.02965502
 0.029667843  0.026721947
 0.030393586  0.054998554
 0.031166732  0.017986136
 0.031987956 -0.028050485
 0.032741992 -0.037240589
  0.03215673 -0.049718939
 0.031857273 -0.064863451
 0.031461357  0.092427063
 0.030973658  0.013489092
  0.03204245 -0.0089217669
 0.032526409 -0.024481433
 0.031049639 -0.017014339
 0.030747605 -0.0065189841
 0.030026271  0.049096597
 0.030194733  0.054684005
 0.030152124 -0.021404278
  0.02926994 -0.035330516
 0.029888456 -0.027048837
 0.031073719  0.023767245
  0.03040912  0.036666685
 0.030179446  0.051076396
 0.029526447 -0.022233807
 0.029472714 -0.0041387508
 0.029799322  0.043316644
  0.03066945  -0.04928168
 0.032091281 -0.031431054
 0.034189438  0.026480899
 0.034647022  -0.01547112
 0.034017476  -0.10352947
 0.032322924   0.03289974
 0.031460903 0.0056319692
 0.032046677 -0.021400755
 0.032271064  0.028352352
 0.031442072  0.047676015
  0.03155368   0.04622157
 0.031454381  0.002942695
 0.030689315  -0.10979671
 0.029640379   -0.0351314
  0.02993277  0.047236342
 0.030728761  0.076344296
 0.030053746    0.0331869
 0.030049185 -0.013332158
 0.029492512 -0.031331413
 0.029809117 0.0068600654
 0.031491871  -0.07218293
 0.033498265  0.019202207
  0.03527333  0.058859379
  0.03632376 -0.0028556525
 0.036296449 -0.032135337
 0.035736171  0.013079402
 0.033150694   0.01188473
 0.031948439 -0.041722429
 0.032441012 -0.019359433
 0.032211808 0.00014381763
 0.031088971  0.055974173
 0.030617355  0.036021858
 0.029142323  0.021900971
 0.028057989 -0.037624409
 0.028414265 -0.054908802
Loop time of 1.92016 on 4 procs for 10000 steps with 864 atoms

compute 3 all msd
compute 4 all vacf

thermo_style custom c_3[4] c_4[4]
thermo 100

run 10000
c_3[4] c_4[4]
           0    2.1254402
 0.016349596   -0.1267458
 0.033526565  -0.87908743
 0.034640211  -0.16180042
 0.034165981 -0.011414069
 0.035384501   0.16104107
 0.036606599  0.033970266
 0.037117503 -0.011814701
 0.034137649 -0.018991654
  0.03179997  0.025471468
 0.030176441 -0.011144379
 0.030071653 -0.095632038
 0.029466598 -0.024513976
   0.0298401 0.0072185453
 0.028793451 -0.0037655086
 0.027972259  0.010665762
 0.029398047  0.037323783
 0.029965546  0.013716533
 0.030494657 -0.0052240638
 0.030182171 -0.031363983
 0.029101679  0.081395169
 0.029286374  0.021845361
 0.029291992 -0.0010556731
 0.029174141  -0.01285877
 0.029490711 -0.0080134419
  0.02972211 -0.023791386
   0.0296063 -0.014768114
 0.029780919 -0.020492303
 0.032105608  0.063642201
 0.033113812 -0.029305862
 0.032341393  0.016074323
 0.031626031  0.018654412
 0.031686167 -0.043133793
 0.030461144 -0.010176131
 0.029065976 0.0083024907
 0.028948386  -0.02376315
 0.028651601  0.047682617
 0.029808515 0.0099018094
 0.030151282 -0.016822423
 0.031710898  0.037634966
 0.033094169 -0.051009028
 0.033105987 -0.010982745
 0.032535303 -0.030958774
 0.032256314 -0.004255659
 0.031056986  0.089224849
 0.030163832  0.036769779
 0.030025027 -0.062976267
 0.030465624  -0.01348024
 0.031736414  0.039737985
 0.032262407 -0.019171536
  0.03166699 -0.026541122
 0.030196621 -0.00067915856
 0.030460559 -0.050071971
 0.029376916   0.04585187
 0.028535756  0.040762677
  0.02959455  0.019886767
  0.02971948 -0.039272248
 0.030787004 -0.014184327
 0.030725604 -0.050887866
 0.030386227  0.035435025
 0.030383624  0.036619636
 0.029128937 -0.014232153
 0.029624939  0.021980049
  0.02931835 -0.017660714
 0.029617274 -0.039762157
 0.029905904  0.027737229
 0.031024519 -0.019279943
 0.031701749  0.016889187
 0.030110804 -0.0028088898
 0.030061789  0.018484385
  0.03063214 -0.022685237
  0.03065119  0.046013816
 0.030841458  0.024693501
  0.03141049 -0.045753747
 0.030450954  0.007338285
 0.030495801  0.015748891
 0.030184214 -0.052446732
   0.0289336 -0.023125775
  0.02844482 -0.030858419
 0.030188783  0.060230378
 0.030213916  0.010119541
 0.030023767 0.0034111063
  0.03076045  0.014282643
 0.032443967 -0.023241432
 0.033422103  0.018637264
 0.034391152 -0.048904043
 0.032858978  0.018957608
 0.030520415   0.04629803
 0.028741833 -0.0097746203
 0.029144043 -0.0066034486
 0.030501405 -0.008584489
 0.031992534  0.026021173
 0.032410011 -0.035219392
 0.032656781  -0.05373337
 0.030464282 0.0045260253
 0.029656073   0.06651698
 0.030025517 0.0042771241
  0.02895829 -0.056872332
 0.028286234 0.0018500662
 0.029513541 0.0030548977
 0.031908556  0.019204981
Loop time of 1.92444 on 4 procs for 10000 steps with 864 atoms

compute 5 all msd
compute 6 all vacf

thermo_style custom c_5[4] c_6[4]
thermo 100

run 10000
c_5[4] c_6[4]
           0    2.1656378
 0.015497749  -0.22878103
 0.032892916  -0.82211159
 0.034644613 -0.062544266
  0.03236464 -0.041937782
  0.03171874   0.17804846
 0.033268889  0.046608314
 0.035152105  -0.19588404
 0.035573929 -0.027658126
 0.035724721 -0.0057071221
 0.036360098 -0.053512526
 0.036789817  0.018918088
 0.036807318   0.01991373
 0.036670802 -0.037192276
 0.035160484 -0.0079259896
 0.033129142  0.063379613
   0.0322649 -0.011317567
 0.031534429  0.089280858
 0.031248271 0.0017298688
 0.031315108 -0.0035692719
 0.030408164 -0.0037529106
 0.030547429 -0.054375176
 0.031881765  0.063276676
 0.032681795 -0.043845356
 0.032233353  0.040954668
 0.031528202 -0.024840614
 0.030016531 0.0017461096
 0.029806137  0.028621095
 0.030406869  -0.07005411
 0.031525734  -0.11126883
 0.031701432 -0.0094584681
 0.031006266   0.14889338
 0.033106321 -0.026607244
 0.032914597 -0.016567183
 0.032432155 -0.0073773569
 0.032062712   -0.0109743
 0.032078802  0.014306595
 0.032921877  0.043094779
 0.032762943  0.025425681
 0.031513622 -0.010634917
 0.030530179 -0.045633257
 0.029973102  0.047243435
 0.028920191  0.027644261
 0.028886896 -0.049730473
 0.030156736 -0.051574136
 0.030492195   0.03758487
 0.030157778 0.0031562411
 0.030133183 -0.012550455
 0.030209873  0.083714971
  0.03096883 -0.047916839
 0.032957268 -0.057078226
 0.033359971 -0.0084012877
 0.034481575  0.013823095
 0.034208986  0.022228885
 0.034322052 -0.011512852
 0.034411622 -0.042179005
 0.034953947 0.0097183358
 0.034627694  0.050329969
 0.033127244   0.05077386
 0.033564254 -0.029545654
 0.032060128 -0.028508633
 0.030483051   0.01918475
 0.028409022  0.012466521
 0.027021509 -0.035549056
 0.029226786  0.021949276
 0.030885646 -0.0021392633
 0.031051191 -0.044120633
 0.030945982 -0.024154614
 0.031302441  0.078949614
 0.033533323 -0.066268344
 0.034381237 -0.072220723
 0.035555804  0.052317847
 0.036264447  0.076726706
 0.036094376  -0.02910616
 0.033770826  0.017294765
 0.032126255 -0.0076429978
 0.032195853 -0.050554394
  0.03254671  0.013005764
 0.033315762   0.05621919
 0.032978119  0.037516374
 0.031882176 -0.058493269
 0.031789721 -0.037338767
 0.030831683  0.038697645
 0.030390645  0.073442182
 0.032494636 -0.0030561795
 0.034074565 -0.063982401
 0.032027933  0.014939459
 0.031051591 -0.056735621
 0.032193091  0.028447777
 0.033437479  0.034394894
 0.035639829 -0.083001513
 0.037178836 -0.028461145
 0.037013331 0.0024486638
  0.03646937  0.032169871
 0.035572617  0.041834509
  0.03414398  0.035358735
 0.033118297 -0.022212558
 0.033280855 -0.049989019
 0.033843537  0.007996937
 0.033391454  0.054824842
 0.032883528  0.039727452
Loop time of 1.93482 on 4 procs for 10000 steps with 864 atoms

compute 7 all msd
compute 8 all vacf

thermo_style custom c_7[4] c_8[4]
thermo 100

run 10000
c_7[4] c_8[4]
           0    2.0880261
 0.015763677  -0.20658751
 0.033134768  -0.81182194
 0.035607354  -0.07395383
  0.03463447 -0.022373012
 0.033747337   0.18713919
 0.034651458 -0.020779466
 0.036598882  -0.11088672
 0.036782881 0.00077265405
 0.035625055 -0.0030438942
  0.03539066  -0.02936123
 0.035043848 -0.039624329
  0.03429782 -0.051740232
  0.03425126  0.057241599
   0.0324091  0.024683956
 0.031774409  0.042039323
 0.031462838  0.035785225
 0.031501823 -0.057350692
 0.031264763  0.065483079
 0.031150103  0.011340684
  0.02981234 -0.038695309
 0.029948233 0.0034722158
 0.030133278 0.0081898634
 0.031639879  0.043581115
 0.032213891  0.066220159
  0.03214041 -0.061686088
 0.031305573 -0.062946808
 0.031515516 -0.013089023
 0.033016501   0.04770739
 0.033967688 -0.012505658
 0.034813805 -0.024097008
  0.03518644 -0.030830965
  0.03428419 -0.024325662
 0.031696477  0.027548897
 0.030153946   0.07894367
    0.031867 -0.0058797482
  0.03290687 -0.031283023
 0.030952185 -0.0049760006
 0.032517393  -0.03409556
 0.033341589  0.033271753
  0.03254995  0.015300633
 0.031806526 -0.021613728
 0.031666186 0.0025168452
 0.031524249  0.060343377
 0.031011465 0.0089131737
 0.031675827 -0.035181553
 0.032366417 -0.056452271
 0.033365393  0.047696514
 0.033815783  0.032048432
  0.03305672  -0.02989225
 0.032335825 -0.040757017
 0.033594751 -0.060499501
 0.034079192  0.035658796
 0.033028484  0.019637018
  0.03131238  0.039988705
 0.032176567  0.023432344
 0.033105449 -0.034504178
 0.031385054  0.052411697
 0.030537758 -0.0093761325
 0.030275342 -0.034230433
 0.031001581 -0.0081775569
 0.030817845 -0.002995601
 0.030450771  0.009847173
 0.030032691  0.014111853
 0.031851064  0.026331696
 0.034015575 0.00065856132
 0.034400752  0.016225438
  0.03413686 0.0031045866
 0.035076063  -0.04745182
 0.036301925 0.0025900837
 0.036749306 -0.058410521
  0.03617662  -0.04372579
 0.034604063 0.0068446132
 0.033684817  0.013587495
 0.031591095  0.017369265
 0.030841361  0.030018296
 0.030658551  0.020882372
 0.030378929  0.057627421
 0.029791806 0.0034776759
 0.030201214 -0.046721731
 0.030679015 -0.030343832
 0.030665682  -0.04048661
 0.031436665  0.082782101
 0.031442095 -0.00014110158
    0.029164 -0.076903978
 0.028867007 -0.0061079168
 0.029678455   0.04462318
 0.031789268  0.039140286
 0.032373152 -0.0022040966
 0.032169861 -0.0086485115
 0.034399611  -0.10146636
 0.035522531 -0.012891708
 0.034959433  0.071994759
 0.034860942 -0.027128836
 0.034423687 -0.049350802
 0.032857432 -0.010100262
 0.032058391  0.026185775
 0.031406015  0.054654597
 0.030364254   0.02649794
 0.028545691  0.041860464
 0.028395671 -0.0088481683
Loop time of 1.92508 on 4 procs for 10000 steps with 864 atoms

compute 9 all msd
compute 10 all vacf

thermo_style custom c_9[4] c_10[4]
thermo 100

run 10000
c_9[4] c_10[4]
           0     2.052283
 0.016223473  -0.16184035
 0.032472108  -0.87876471
  0.03398631  -0.10640078
  0.03245077   0.05941782
 0.031371381   0.13475701
 0.031150407  0.020816671
 0.031823324 -0.073571269
 0.030164239 -0.042933964
 0.030503481 -0.0080815251
 0.031230331 0.0099297735
  0.03114232 -0.011350116
  0.03123069   0.04637196
   0.0293857 -0.0024304194
 0.028303894 -0.034354179
 0.029781139  0.010069001
 0.030316868  0.012632387
 0.028547661 0.00015530805
 0.027426544  0.021600811
  0.02824162 0.0033243983
 0.029865031   0.05663598
 0.030053046 -0.046355991
 0.029080978 0.0076461689
  0.02934343  0.020904451
 0.029983978  0.014550036
 0.032209968 -0.039499178
 0.033052498  0.046395871
 0.033407221 -0.052833697
 0.033676145 -0.014507105
 0.033915935 -0.058222299
 0.032660361 -0.055954108
   0.0314331 -0.030646432
 0.030131921  0.052128334
 0.028854537  0.031439343
 0.027452549  0.058449504
 0.028342183 0.0090398398
 0.030044471  -0.02002715
 0.031045715 0.00066384288
 0.032576384  0.013107402
 0.031927545 -0.031764433
 0.031543162  0.053571606
 0.030312866 -0.0098526923
  0.02988647 -0.064121008
  0.03049452 -0.030542878
 0.030308643  0.015690123
 0.030091275 -0.014266235
 0.030082218  0.015422254
 0.031173862  0.048433561
 0.031356866 -0.026353518
 0.031193526 -0.010819166
 0.030765726  0.048866208
 0.029698852 -0.019867282
 0.029110782  0.013887957
 0.030209808 -0.0057831755
 0.030743867  0.035837714
 0.031012914 0.0044523554
 0.030555846  0.010478161
 0.030647697 -0.022466345
 0.031249378  -0.11555996
 0.031262071  0.035449619
 0.031005453   0.13198373
 0.030862579 -0.048084456
 0.030890714 -0.037380258
  0.03056579 0.0044766897
 0.030002882 -0.014357257
  0.02951258  -0.02217019
 0.029840645 -0.025270791
 0.030402159   0.06226152
 0.030761878  0.035149701
  0.02950903 -0.032514077
 0.029617535 -0.026362756
 0.030587437  0.032620354
  0.03156423 -0.024539432
 0.031288258 -0.0038857341
 0.030948001 -0.033343016
 0.032001287  0.094586679
  0.03108086  0.029437603
 0.031149627 -0.056341092
 0.032369873 -0.083878645
 0.032905455 -0.050237087
 0.031439584   0.10714746
 0.030381499  0.056395702
 0.031343005 -0.030070566
 0.032535259 -0.0021085621
 0.032257839  0.029100639
 0.030638784 -0.034214416
   0.0298114 -0.013896008
 0.031541478 -0.010209379
 0.033279352  0.026630686
 0.033057639 -0.022271059
  0.03268001 -0.055017895
 0.032787916  0.047428817
 0.032364398  0.020635081
 0.032698582  0.025521516
  0.03182574 -0.016811765
 0.030898604 -0.085866855
 0.030213759  0.032839532
 0.030371106  0.029811235
 0.031082108  0.029009624
 0.029309318  0.010713973
  0.02891778 -0.022774101
Loop time of 1.91654 on 4 procs for 10000 steps with 864 atoms
