LAMMPS (29 Sep 2021 - Update 2)
#RDF

units		lj
boundary	p p p
atom_style	atomic

lattice		fcc 1.5
Lattice spacing in x,y,z = 1.3867225 1.3867225 1.3867225
region		box block 0 6 0 6 0 6
create_box	1 box
Created orthogonal box = (0.0000000 0.0000000 0.0000000) to (8.3203353 8.3203353 8.3203353)
create_atoms	1 box
Created 864 atoms
mass		1 1.0

velocity	all create $T 87287 loop geom mom yes rot yes
velocity	all create 0.3 87287 loop geom mom yes rot yes
reset_timestep	0
timestep	0.001
pair_style	lj/cut 2.5
pair_coeff	1 1 1.0 1.0 2.5

neighbor	0.3 bin
neigh_modify	every 20 delay 0 check no
thermo		100

#Equilibration

fix		thermos all nvt temp $T $T 1.0
fix		thermos all nvt temp 0.3 $T 1.0
fix		thermos all nvt temp 0.3 0.3 1.0
run		20000
  update every 20 steps, delay 0 steps, check no
Step Temp E_pair E_mol TotEng Press
0          0.3  -0.91733251            0  -0.46785335    89.819609
Averages over the last 101 of 201 rows, steps 10000 to 20000:
Temp E_pair E_mol TotEng Press
0.299464 -0.471479 0 -0.0228029 92.832
Loop time of 6.28749 on 4 procs for 20000 steps with 864 atoms

unfix 	thermos

fix 	1 all nve

run 	20000
Step Temp E_pair E_mol TotEng Press
20000   0.31124294  -0.46105309            0 0.0052709673    92.921846
Averages over the last 101 of 201 rows, steps 30000 to 40000:
Temp E_pair E_mol TotEng Press
0.308635 -0.457148 0 0.00526771 92.9413
Loop time of 6.20781 on 4 procs for 20000 steps with 864 atoms

compute 1 all msd
compute 2 all vacf

thermo_style custom c_1[4] c_2[4]
thermo 100

run 10000
c_1[4] c_2[4]
           0   0.92291208
0.0018891689 -0.051920089
0.0012863527   0.20322908
0.0013827173  0.078602327
0.0013136963    0.1112128
 0.001465151     0.046435
0.0011491499   0.09530246
 0.001347482  0.049747528
0.0015706721 -0.066577375
0.0012682238  0.065047029
0.0015821839 -0.089835036
0.0013575579  0.010673534
0.0013413842  0.028265592
 0.001362734 -0.039093776
0.0014603898 -0.030517579
0.0013869321 -0.050390139
0.0014363471  0.029819792
0.0013494516  0.012868552
0.0014640045 -0.061894822
0.0012691738  0.013749688
0.0014682459  0.024741628
0.0013220426  0.036395671
0.0014825192  0.010748162
0.0014603941 0.00033171511
0.0014762513 -0.023185559
0.0012837569   0.02408865
0.0013020009  0.044760903
0.0013319867 0.0007974958
0.0016031672 -0.026243765
0.0014680706 -0.0090093279
0.0013616267 0.0074207022
0.0013817886 0.0025032724
0.0013267947 -0.0030709224
0.0013193897  0.077738686
0.0015059423  -0.02633998
0.0015902527 -0.064083781
0.0013465669  0.045598075
0.0014057853 0.00066802607
0.0012690898  0.025162976
0.0014042759 -0.012144405
 0.001306908  0.050099283
0.0015955225 -0.059853191
0.0013216224  0.014833543
 0.001450359 -0.0082595476
 0.001238774  0.034662351
0.0014743111 -0.019259492
0.0013538536 0.0052027752
0.0013638655 0.0065086438
0.0014463109 -0.030203273
0.0013258766  0.019276366
  0.00146578 -0.041913182
0.0012531491  -0.01958737
0.0014800823 -0.044814975
0.0013479073 -0.043765486
0.0014537147  0.027137506
0.0014506542 -0.029325983
0.0013742022  0.057146504
 0.001230363 -0.0093347198
0.0014050019 -0.010228964
0.0013253999  0.016016949
0.0014007022 -0.010265582
0.0014825171  0.014699364
0.0013926844 -0.017734149
0.0012969545  0.035653759
0.0012631313 -0.0074693289
0.0014118749  0.009712972
0.0013481483  0.042514971
0.0015504953 -0.056418101
0.0014060557 0.0089258408
0.0012892263 0.0074593889
0.0013273708  -0.02348433
0.0014970685 -0.014128102
0.0014001423   0.01029694
0.0013651432  0.040697564
0.0014119075 -0.012477407
0.0013228529 -0.036770756
0.0013003944  0.010507883
0.0013760383  0.018802042
0.0014786242 -0.041877696
0.0013558234 -0.034461656
0.0014162133  0.043290846
0.0014412147  -0.06791169
0.0013740372 0.0027623523
 0.001257302 0.0098875415
0.0015403666 -0.042451218
0.0012516449 -0.0012828353
0.0014424691 0.0025038034
0.0013933732 0.0029893973
0.0014035206 -0.011307718
0.0012047673  0.058365385
0.0014415281 0.0051607027
0.0012686749 0.0049294394
0.0014365203 0.0065140277
0.0015184635 -0.0059428138
0.0013090231  0.012837128
0.0013089007  0.022309143
 0.001408135 -0.010363214
0.0014150777 -0.030990678
0.0013918836  0.045485394
0.0014550953 -0.013021626
0.0013621844 -0.026881522
Loop time of 3.09286 on 4 procs for 10000 steps with 864 atoms

compute 3 all msd
compute 4 all vacf

thermo_style custom c_3[4] c_4[4]
thermo 100

run 10000
c_3[4] c_4[4]
           0    0.9443706
0.0018197354 -0.083443517
0.0012879194   0.17169953
0.0014439973  0.085610352
0.0013391436   0.11304744
0.0013893642  0.046042418
0.0011615704  0.086669129
 0.001373616  0.064860753
0.0015157363 -0.033585708
0.0013213517  0.054567027
0.0015058719 -0.064743904
0.0013104242  0.034220093
0.0013249806  0.035246716
0.0013093409 -0.046941448
0.0015314812 -0.023950899
0.0014551316 -0.028286471
0.0014154182  0.033337338
0.0012505278  0.023126906
 0.001403902 -0.094737504
0.0014007748 0.0064119161
0.0014354088  0.040229562
0.0012211971   0.04426874
0.0014167938 -0.022369335
0.0012930526  0.052595663
0.0014744481 -0.032079167
0.0013396769  0.031603391
0.0012433628  0.021005245
0.0013279449  0.021920093
0.0015254825 -0.073081301
0.0013784765 -0.0073952545
0.0013491859 -0.018152106
0.0014565194 0.00040961768
0.0013003937 0.0057178128
 0.001246597  0.094229508
0.0013948431 -0.013622589
0.0015844585  -0.11245509
0.0012427573  0.055508774
0.0014660454 -0.020573941
0.0012313786  0.015478659
0.0013314719 -0.047030552
0.0014039047   0.06361644
0.0015320723  -0.06927909
0.0013638217 -0.018583724
0.0012687398 0.00085308091
0.0012259293  0.037120085
0.0014887327 -0.019754309
0.0013744254 0.0058443414
0.0013810391  0.032544222
0.0014225329 -0.020996769
0.0012397858  0.049475247
0.0014171935 -0.0068050217
0.0013730145 -0.017517184
0.0014289633 -0.0078010281
0.0013527814 -0.0023277409
0.0013918993 -0.0046103633
0.0013821973 -0.037628055
0.0012737976  0.081515095
0.0014380224 -0.023516624
0.0013423324 -0.029191165
0.0013364856  0.051865607
0.0013951926  0.013008369
0.0013674692 0.0030848174
0.0014092606 -0.010030508
0.0013699414   0.03252478
0.0012898722 -0.0013099173
0.0013521312 0.0083410555
0.0013531757  0.038390771
0.0015796824 -0.052265206
0.0013451446  0.026627545
 0.001257953 0.0094991074
0.0014106328  0.021047909
 0.001400487 -0.037679619
0.0013771526  0.026055941
0.0014242815  0.015195621
0.0014351295 -0.018028561
0.0013352927 -0.003158612
0.0012521811  0.022602346
0.0014256221  0.035908774
 0.001440272 -0.049823689
0.0014329026  0.020625336
0.0013809993  0.026557359
0.0013086005 -0.014301003
0.0013322539 -0.0063467397
0.0014321957  0.044692344
0.0014787259 -0.057594099
0.0013077178  0.027656901
0.0014566708  0.018779813
0.0012607939 -0.018581744
0.0014581441 0.0066311687
0.0013266257  0.053602412
0.0014104133  -0.03460712
0.0013658099 -0.0015682932
0.0014413466  0.018454102
0.0013839093 -0.036345351
0.0013798006  0.018440002
0.0013185082  0.017907169
0.0013805823 -0.014105472
0.0013730339 -0.034873684
 0.001296926 0.0086663623
0.0014214932 -0.0049917546
0.0014491395 -0.036380708
Loop time of 3.08855 on 4 procs for 10000 steps with 864 atoms

compute 5 all msd
compute 6 all vacf

thermo_style custom c_5[4] c_6[4]
thermo 100

run 10000
c_5[4] c_6[4]
           0   0.90658461
 0.001879073 -0.043039572
0.0012060367   0.18867678
0.0013442601    0.1123585
 0.001201446  0.085856444
0.0013947621  0.049097719
0.0012189862  0.069794855
0.0013763964  0.040473003
0.0014783135 -0.041580106
0.0012333763  0.068203765
0.0015092623 -0.070774429
0.0013005384   0.03710189
0.0013414356  0.029150846
0.0012961849 -0.018130541
0.0013839888 -0.031277958
0.0014093755 -0.021430395
0.0013147141 0.0099516089
0.0013330491 -0.012274132
0.0013771087 -0.065822786
0.0013409438 -0.014641837
0.0013696887 0.0036732801
0.0012958366  0.049316969
0.0014008697   0.01232778
0.0013772686  0.044182032
0.0013999784 -0.040946245
0.0012802508  0.025371918
0.0013217055  0.064254563
0.0012627372  0.042369963
0.0015559085 -0.078282302
0.0012737848  0.024021308
0.0012939637  0.016641795
0.0013617056 -0.024421888
0.0012698157 0.0062509622
 0.001336368  0.084650548
0.0013547622 -0.022462142
0.0014662882 -0.084999473
0.0012065254  0.046252662
0.0014097675 -0.023148351
0.0012389927 -0.0034316712
0.0014385023 -0.044248091
0.0013716519  0.023338934
0.0014176497 -0.060152089
0.0013351692 -0.016410542
0.0013007129 0.0001897411
0.0012829813 0.0074798946
0.0014793799 -0.018980761
0.0013199937 -0.016985107
0.0013634594 -0.014059861
0.0013470196 -0.018378317
0.0013255889  0.035322457
0.0014268093 -0.062430275
0.0012901724 -0.041893397
0.0014150717 -0.0081596292
0.0013734233 -0.019189068
0.0013857524 -0.0055606976
0.0013688277 -0.060399392
0.0013070061  0.060252477
0.0013322456  0.017216419
0.0013971597 -0.022130414
0.0014230036  0.018467169
0.0013202482  0.034223498
0.0013698091  0.009636838
0.0014505385 0.0034555961
0.0012799331  0.051131691
0.0013078351  0.046387229
0.0014395815  0.014690897
 0.001368016  0.073452733
 0.001401761 -0.041311497
0.0013319237  0.028614068
0.0012887978  0.059164148
0.0013415614  -0.01910847
0.0014931868 -0.0010368791
0.0013630063  0.034210606
0.0013224396  0.020619314
0.0014358664 -0.011635411
0.0013654986 -0.024606765
0.0013339156  0.002949073
0.0014705956 -0.0060319166
0.0014016234 -0.025828268
0.0014089328 -0.011749081
0.0013424197 -0.0074005322
0.0013554978 -0.053241684
0.0013755144 -0.018388144
0.0013767678  0.023737744
0.0014213315 -0.054069069
0.0012757517  0.031327599
0.0014045509  0.010214201
 0.001445221 0.0039248898
0.0014579441  0.011761459
0.0012712836  0.044630798
0.0013647441 -0.003243046
0.0013924627 0.0086786306
0.0013930197 -0.014663945
0.0014251135 0.0074205591
0.0013919634 0.0021290056
0.0012971573  0.035179988
  0.00133354 -0.030228846
0.0013883514  -0.02168819
0.0013182683  0.024752271
0.0013365427 -0.0086010326
 0.001385941 -0.045899378
Loop time of 3.09839 on 4 procs for 10000 steps with 864 atoms

compute 7 all msd
compute 8 all vacf

thermo_style custom c_7[4] c_8[4]
thermo 100

run 10000
c_7[4] c_8[4]
           0   0.95112036
0.0018088649 -0.061775417
0.0012309969   0.17414844
0.0014504054  0.096066983
0.0013889875   0.11316877
 0.001323971  0.041111017
0.0011974167   0.11821798
0.0012701875 0.0049622813
  0.00154786 -0.055901146
 0.001457559  0.019905828
0.0015277337  -0.10372836
0.0013075947    0.0218633
0.0012479923  0.047977234
0.0013219036 -0.071835995
0.0014795583 -0.035665041
0.0014894203 -0.0028350276
0.0013832747  0.024149504
 0.001300115 -0.0098825943
0.0012932625 -0.072914685
0.0013981589 -0.032316087
0.0014900973 -0.023368379
0.0012889205  0.089978732
0.0014396265 -0.010435512
0.0013550785 0.0090531531
0.0014252642 -0.059749324
0.0013704703   0.01351126
0.0012457478  0.030572134
0.0013287318 -0.0014796801
0.0017111809 -0.050469849
0.0013688607 -0.024933165
0.0013958763 -0.020357676
 0.001384616 -0.026694645
0.0012986616 0.0096876004
0.0013229929  0.073128297
 0.001496595 -0.015557345
0.0016641189  -0.10465465
0.0012976714  0.012387854
0.0013808753  -0.02106939
0.0011973399 -0.017087704
 0.001398527 -0.034149576
0.0015050846  0.016943526
0.0016112438 -0.042394224
0.0013318048 -0.0028172386
 0.001264986 -0.00022824708
0.0012731121  0.045553403
0.0014192891 -0.020393426
0.0015237684 -0.0041448492
0.0014623313  0.065575148
0.0014517744  0.011541688
0.0012704064  0.043175248
0.0013691813 -0.022049204
0.0013697953  -0.02799796
0.0014137802 -0.021004122
0.0015384255 -0.042941228
  0.00138425  0.023877791
0.0014258959 0.0021936879
0.0012868517  0.011051485
0.0014163921 -0.028909149
0.0013194808 -0.059058692
0.0013910024  0.040117057
 0.001516972 -0.023779861
0.0014497336 0.0038409533
0.0014112056 -0.014163667
0.0013130346 0.0067793593
0.0011846546 0.0095417579
0.0014974106  0.021022346
0.0014167425  0.037154592
0.0015053886 -0.036401942
0.0013176829 0.0020706477
0.0012682807   0.01328255
0.0012642219   0.02431552
0.0014803684 -0.010242607
 0.001511946 -0.0028377538
 0.001410154  0.021221781
0.0014000509 -0.0052431543
0.0012477617 -0.0047401446
0.0012701156  0.006052238
0.0013944118  0.043286139
0.0015754868  -0.02585325
0.0014963675 -0.021832695
0.0013750372  0.003892531
0.0012892217 -0.037442239
0.0014159335 -0.046015878
0.0013369982    0.0318628
0.0015751242 -0.077059595
0.0014098745  0.018602509
0.0014081676 -0.009166494
0.0013794477 -0.014895953
0.0014034595 -0.0089099221
0.0013192303  0.025925078
0.0012992484 0.0091463732
0.0014989715 0.0013145991
0.0014470211 0.0072535759
0.0013549744 -0.021432299
0.0013592539  0.019114713
0.0012777246  0.043717632
0.0013013911  0.013502492
0.0015223707 -0.015130772
0.0014545623  0.032000548
0.0013993401  0.025745025
0.0013991735 -0.0058021136
Loop time of 3.09607 on 4 procs for 10000 steps with 864 atoms

compute 9 all msd
compute 10 all vacf

thermo_style custom c_9[4] c_10[4]
thermo 100

run 10000
c_9[4] c_10[4]
           0   0.93613798
0.0018265292 -0.022352607
 0.001319132   0.18295673
0.0014388216   0.11942839
0.0015678606   0.10741459
0.0014627025  0.029195811
0.0012553521   0.10449993
0.0012861207 0.00020602242
0.0015086103 -0.076038042
0.0014230334  0.035776907
0.0017742835  -0.12563837
0.0014555985  0.018193055
0.0012558848  0.010438751
0.0014101307 -0.059544183
0.0013955914 -0.045369126
0.0015054415 -0.050279105
0.0015831698  0.027725065
0.0016199289 -0.0061889443
0.0014828531 -0.046897958
0.0013118895  0.022879882
0.0014294828 -0.0041369471
0.0012706958  0.065230317
0.0015657973   0.01313778
 0.001720186  0.015824377
0.0015704976 -0.030979242
0.0012781333  0.031775047
0.0012725183  0.010105396
0.0012221476 -0.026366379
0.0018161311 -0.046020966
0.0016454587 -0.0029657161
 0.001478595 -0.038079946
0.0015007963 -0.011812056
0.0013104625 -0.038259381
0.0012666431  0.059349844
0.0015124823 0.0041538456
 0.001781133  -0.11722837
0.0016092053   0.03349161
0.0015115963 -0.027203242
0.0012960052 -0.028361278
0.0014280573 0.0062893944
0.0014965785   0.03461484
0.0015965129 -0.033828793
0.0015830197 -0.012201101
 0.001478816 -0.0026981273
0.0013097001  0.048585749
0.0014847971 -0.0096017565
0.0013227953  0.021205782
 0.001465085 -0.0035767599
0.0016333936  0.012605454
0.0016175874  0.018494645
0.0014192583 0.0061601043
0.0013264042 -0.035238395
0.0013605901 -0.00042986032
0.0014525318 -0.033275242
0.0016597171 -0.0065538052
0.0016751837 -0.034581793
0.0013660579  0.053215075
0.0013958476 -0.030881697
0.0013902855 -0.043591557
0.0013854732  0.034703696
 0.001643837  0.013167312
0.0017544442  0.032958946
0.0015559983 -0.030122805
0.0012288599  0.025051478
 0.001334288  0.042199236
0.0014515325  0.046178355
0.0016299054  0.051868771
0.0017753789 -0.019444456
0.0014804195  0.032905325
0.0013161067  0.071481463
0.0013943938  0.022172892
0.0014549273 -0.0021248154
0.0015133159  0.031064625
0.0016033058   0.07313151
0.0016170518 -0.036006801
 0.001401382 -0.0037254403
0.0012664089 0.0091707549
0.0014580101  0.035798866
0.0014929304 -0.061810067
0.0016384077 0.0062809678
0.0015780942 -0.016291905
0.0015877129 -0.049352449
0.0013953967 -5.7144837e-05
0.0013634823  0.053878096
0.0014565762 -0.043019657
0.0014900411 -0.0067360158
0.0016625609  0.046859629
0.0016282383 -0.0064403166
0.0014312191  0.019411259
0.0012128306  0.057258067
 0.001353222 -0.028535125
 0.001489784 -0.013196948
0.0017666809  0.001583858
0.0016567296 -0.024302375
0.0013449134  0.021185837
0.0013459758  0.035706481
 0.001352046 -0.018564701
0.0015334149 -0.0071448687
0.0016139252  0.033916721
0.0015853954  0.028988154
0.0015472404 -0.0077546584
Loop time of 3.094 on 4 procs for 10000 steps with 864 atoms
