LAMMPS (29 Sep 2021 - Update 2)
#RDF

units		lj
boundary	p p p
atom_style	atomic

lattice		fcc 0.5
Lattice spacing in x,y,z = 2.0000000 2.0000000 2.0000000
region		box block 0 6 0 6 0 6
create_box	1 box
Created orthogonal box = (0.0000000 0.0000000 0.0000000) to (12.000000 12.000000 12.000000)
create_atoms	1 box
Created 864 atoms
mass		1 1.0

velocity	all create $T 87287 loop geom mom yes rot yes
velocity	all create 1 87287 loop geom mom yes rot yes
reset_timestep	0
timestep	0.001
pair_style	lj/cut 2.5
pair_coeff	1 1 1.0 1.0 2.5

neighbor	0.3 bin
neigh_modify	every 20 delay 0 check no
thermo		100

#Equilibration

fix		thermos all nvt temp $T $T 1.0
fix		thermos all nvt temp 1 $T 1.0
fix		thermos all nvt temp 1 1 1.0
run		20000
  update every 20 steps, delay 0 steps, check no
Step Temp E_pair E_mol TotEng Press
0            1   -3.0307637            0   -1.5324998   -2.1523839
Averages over the last 101 of 201 rows, steps 10000 to 20000:
Temp E_pair E_mol TotEng Press
0.995553 -3.33236 0 -1.84076 0.0107872
Loop time of 2.29745 on 4 procs for 20000 steps with 864 atoms

unfix 	thermos

fix 	1 all nve

run 	20000
Step Temp E_pair E_mol TotEng Press
20000   0.96376396   -3.3326572            0   -1.8886845 -0.063714981
Averages over the last 101 of 201 rows, steps 30000 to 40000:
Temp E_pair E_mol TotEng Press
0.980128 -3.36063 0 -1.89214 0.000471483
Loop time of 2.33589 on 4 procs for 20000 steps with 864 atoms

compute 1 all msd
compute 2 all vacf

thermo_style custom c_1[4] c_2[4]
thermo 100

run 10000
c_1[4] c_2[4]
           0    3.0085803
 0.027546937    1.8783798
 0.091753881   0.78684119
   0.1752928   0.54170319
  0.26932142   0.38482617
  0.37147995   0.33920459
  0.48264944   0.30222772
  0.60008141   0.20037343
  0.72080209   0.27096707
  0.84893981    0.3019488
   0.9862854   0.21876651
   1.1188469  0.094058924
   1.2423856  0.048034417
   1.3672752  0.073874647
    1.492953   0.12192003
   1.6230105  0.092270116
   1.7510224  0.088596012
   1.8757921  0.019532334
   1.9986061  0.064861274
   2.1249718  0.034836099
   2.2516083  -0.06715166
   2.3872613 -0.019280329
   2.5256482  0.085650073
    2.666964   0.19599936
   2.8081367  0.089611519
   2.9536359 -0.0078565965
   3.1117729 -0.047717951
   3.2500053 -0.015002327
   3.3799943 -0.019619098
   3.5222098  0.052954262
   3.6772746  0.092905571
   3.8344088 -0.074524202
   3.9733827  -0.13141079
   4.0999829  -0.15847869
    4.227141  -0.10554571
   4.3722285 -0.088121964
   4.5250051 -0.0013893658
   4.6766958 -0.015966757
   4.8268006  0.042327467
   4.9719496   0.06137942
   5.1044873 -0.056122244
   5.2473712 -0.018320386
    5.393542  0.061190319
   5.5152068  0.026066437
    5.636849  0.020990939
   5.7786446 -0.0018182023
   5.9149594  0.024000819
   6.0498517 -0.0019386237
   6.1802614  0.048974341
   6.3117828  0.072805771
   6.4437246  0.055277985
   6.5671371 -0.0020831342
   6.7018241  0.019247024
   6.8625078  0.038116266
   7.0154569 0.00017134844
   7.1496249 -0.010265162
   7.2954919  0.058017955
   7.4467549   0.03446056
   7.6059924  0.014497475
   7.7716619  0.040521443
   7.9061388  0.046602924
   8.0387292 0.0058499894
    8.185913  0.032130426
   8.3299214  0.099883552
   8.4693983  0.062055007
   8.6211497  0.083869365
   8.7631109  0.046823759
   8.9119744   0.03638796
   9.0446038 -0.030532811
   9.1478363 -0.033725125
   9.2708623  0.026806106
   9.4007638 4.6672956e-05
    9.545265 -0.050397798
    9.703348 -0.042436509
   9.8597938  0.017051571
    10.00526  0.055636558
   10.148677  0.094534524
   10.285196   0.10641717
   10.407854   0.12131273
   10.527361  0.047285635
    10.66292  0.042720577
   10.823595  0.052393108
   10.988163  0.021526993
   11.109552  -0.05224429
   11.230328  0.014278722
   11.362784  0.095809102
    11.48911  0.061561002
   11.616853  0.058910064
   11.739168 0.0035971279
   11.882137  0.056179442
   12.017463  0.085135942
   12.132851   0.02603782
   12.239328 -0.006668785
   12.367123 -0.042309687
   12.495185 -0.053947697
   12.616799  -0.12319471
   12.769829 -0.088854525
   12.889308 -0.0014979032
   12.986585 -0.0048180388
   13.092913 -0.060244081
   13.213131 -0.013637708
Loop time of 1.1856 on 4 procs for 10000 steps with 864 atoms

compute 3 all msd
compute 4 all vacf

thermo_style custom c_3[4] c_4[4]
thermo 100

run 10000
c_3[4] c_4[4]
           0     2.936394
 0.027766003    1.9955343
 0.095188819    1.0432514
  0.18254723   0.65819604
  0.27658606   0.48180086
  0.38039669   0.36010975
  0.48545042   0.27248522
  0.59548997    0.2932921
  0.71278754    0.1488637
   0.8216687   0.11538212
  0.93052184   0.11477957
   1.0472014  0.076874009
   1.1699918   0.11853063
   1.3008317  0.091270676
   1.4294916 0.0063564001
   1.5599815   0.12825897
   1.6923779 0.0035911482
   1.8155242 0.0068345517
   1.9459809  0.046139912
   2.0805766   0.14155554
   2.1968225  0.099736603
   2.3131498   0.11122969
   2.4402111 0.0082136227
   2.5679004   0.12238244
   2.6969446  0.038541217
   2.8193658   0.09363794
   2.9452512   0.13460401
   3.0598301  0.047792587
    3.180746  0.065831045
   3.3268476    0.0808291
   3.4725291  0.088870285
   3.6249502   0.11277799
   3.7722234   0.07949106
   3.9127614  0.090725969
   4.0557396 -0.0036730139
   4.1993025 -0.044953889
   4.3397229   0.05305439
    4.484696  0.070175494
   4.6314752   0.10995821
   4.7749764   0.12832471
   4.9176466  0.018365577
   5.0544152  -0.15291147
   5.1923479 -0.083005529
   5.3443045 -0.077838674
   5.5146203 -0.00075356054
    5.676476  0.060651687
   5.8223554  0.024763042
   5.9557637  0.031532805
   6.0915224  0.050193308
   6.2306526 -0.0056998811
   6.3677814  0.021548149
   6.4826455  -0.01458016
   6.6043647  0.070473242
   6.7438749  0.022031798
   6.8732178 -0.027220996
   7.0050316  0.011598161
    7.158246  0.053686466
   7.3133726  0.061907428
   7.4730221   0.13084432
   7.6343152   0.13539259
   7.7952938  0.055868362
   7.9383037  0.050269938
    8.091781  0.052061948
   8.2431385  0.047910245
   8.3773339 -0.013602985
   8.5085498  0.045696586
   8.6441124  0.067330711
   8.7986902  0.049963004
   8.9271673  0.028338112
   9.0472901  0.021897869
   9.1940982  0.011262289
    9.363811  0.020104148
   9.5195443 -0.040139888
   9.6409338 -0.088251109
   9.7572143 -0.062901923
   9.8622721 -0.029315976
   9.9585432  -0.10467467
   10.050263 -0.027112456
     10.1784 -0.0042116206
   10.323653  0.081461565
   10.444027  0.082826289
   10.561675  0.061591728
   10.699285  0.019084479
   10.855716  0.017053523
   11.004135   0.04569581
   11.105564  0.028581393
   11.183474   0.04283493
   11.298021 -0.0018295345
   11.422637 -0.055738261
   11.549884  0.012533639
   11.692636  0.050257469
   11.832839 -0.046713707
   11.950331 -0.079919397
   12.069939 0.0016022119
   12.197702  0.086478112
   12.309485  0.091305132
   12.422312  0.048798459
    12.54184  -0.02709281
   12.646361  0.010850909
   12.739852 -0.0092301723
   12.855916 -0.018125121
Loop time of 1.20376 on 4 procs for 10000 steps with 864 atoms

compute 5 all msd
compute 6 all vacf

thermo_style custom c_5[4] c_6[4]
thermo 100

run 10000
c_5[4] c_6[4]
           0    2.9598146
 0.027440015    1.9045625
 0.093551075   0.93310117
  0.17409544   0.47357309
  0.26448328    0.3229842
  0.36910566   0.22365873
  0.47787082   0.19117026
  0.59132335   0.21519455
  0.70497413  0.069176509
   0.8141721 -0.0064844128
  0.92629491 -0.004716554
   1.0498746  0.029190473
   1.1726464  0.029826647
   1.2873114  0.029889952
   1.4032983  0.056588582
   1.5208899  0.055407641
   1.6346118    0.0367584
   1.7590421 -0.028208366
    1.887963 -0.032036535
   2.0109609 -0.035599785
   2.1196604 -0.055620168
   2.2313808 -0.062821666
   2.3452016 -0.050233052
   2.4711455 -0.0070322548
   2.5997304 -0.020386525
   2.7222033  0.028518035
   2.8402015 -0.083760784
   2.9580661  0.029821498
   3.0721539  0.091995211
   3.1835418  0.063361131
   3.3050036  -0.01429609
   3.4427676 -0.066959254
   3.5711907 -0.070455771
   3.6807109 -0.028312976
   3.8081197  0.013231881
   3.9463817  0.055990578
   4.0823184  0.011114266
   4.2243056 -0.024111316
    4.353328  0.096022401
   4.4691067  0.049754132
   4.5939374 -0.0098968903
   4.7287388  0.026201039
   4.8621869  0.023830607
    4.982813 -0.064273807
   5.1057562 -0.061495416
    5.226259  0.045042025
   5.3518221  0.082094467
   5.4953789 0.0017956906
   5.6359402  -0.03428022
   5.7662362 -0.016369844
   5.9006106 0.0083283269
   6.0316732 -0.045093581
   6.1670061 0.00057278273
   6.3110859   0.14565146
   6.4565773   0.10047819
   6.6017227 -0.0082921771
    6.720132 -0.035458069
   6.8287395  0.050206211
   6.9549543 -0.035055806
   7.0915334 -0.0066805052
   7.2358235 -0.032454727
   7.3812958 -0.021613656
   7.5318152 -0.015149482
   7.6922474 -0.050047006
   7.8338585 -0.034019218
   7.9874076 -0.056858309
    8.139262 -0.045543084
   8.2826918 -0.024092769
   8.4210218  0.047093191
   8.5598347  0.028583922
   8.6985119  -0.10456326
   8.8240652 -0.061519764
   8.9445949 -0.039417431
   9.0685187 -0.004567219
   9.2109526  0.022776999
   9.3598107 0.0030908108
   9.4985588 -0.030455293
   9.6474522 -0.029088341
   9.7726633 -0.095564093
   9.8992318 -0.090681752
   10.039799 -0.061041105
    10.19024 -0.031026491
   10.335829 -0.089147817
   10.475226 -0.083138954
   10.632991 -0.066262992
   10.765251 -0.079329481
     10.8796 -0.032938144
   11.017823 -0.062928689
   11.146836 -0.041181052
   11.265733 -0.025922902
   11.400005  0.064605568
   11.531563  0.074812347
    11.63894 -0.0058381715
   11.739557 -0.0032679065
   11.865082 -0.070175472
   12.002456 -0.078574321
   12.150768 -0.042656925
   12.297417 -0.031028349
   12.444926  0.069567817
   12.588165      0.12676
   12.731169  0.059134707
Loop time of 1.21199 on 4 procs for 10000 steps with 864 atoms

compute 7 all msd
compute 8 all vacf

thermo_style custom c_7[4] c_8[4]
thermo 100

run 10000
c_7[4] c_8[4]
           0    2.9752199
 0.027417851     1.941123
  0.09357556   0.98135629
   0.1758543   0.54556484
  0.26428845   0.40413126
  0.35944347    0.3425921
  0.46293502   0.32196449
  0.57557849   0.25669966
  0.69549777   0.22560184
  0.81645371    0.1753043
  0.94311982   0.17007525
    1.067693   0.17557442
   1.1883003   0.11207777
     1.30776  0.043943669
   1.4262592  0.098386478
   1.5417135  0.022153393
    1.656188 -0.062528318
   1.7798057  0.012608688
   1.9049138 -0.0056507655
   2.0285985  0.096906207
   2.1459105   0.07009925
   2.2524967 0.0014637703
   2.3624857    0.1322096
   2.4835141  0.066737944
    2.612207  0.074046051
    2.737209  0.010109588
   2.8631759  -0.05619489
    3.002522 -0.026308138
    3.144906  0.022499921
   3.2748381  0.031225826
   3.4065125  0.033063062
   3.5398239  0.012288407
   3.6691183   0.06381292
   3.7968672  0.065440487
   3.9340693  -0.03725972
   4.0757057  0.089890298
   4.2169066   0.12149954
   4.3666948    0.0471992
   4.5271263   0.04012795
   4.6825648   0.03061171
   4.8308085   0.03042291
   4.9923733  0.055996712
   5.1556267  0.065159698
    5.320323  0.070774602
    5.466926   0.10175339
   5.6237644   0.15193397
   5.7779016   0.14160387
   5.9353462  0.089794315
   6.0873381  0.055907977
   6.2318857    0.1463374
   6.3802329  0.098839711
   6.5347959  0.057807164
   6.6781981 0.0036251097
   6.8019122  -0.04839316
   6.9239968 -0.018355004
   7.0471669 -0.010611517
   7.1893413 -0.056392276
   7.3257676 -0.098915664
   7.4427721 -0.0082308405
   7.5662609  0.048450193
   7.7055335  0.011781213
   7.8361102 -0.071335423
   7.9792232 -0.066265779
   8.1381353 0.0035076559
   8.3055247  0.048296425
   8.4643407 0.00026494703
   8.6058858 0.00018845975
    8.758361  0.067490057
   8.9110978  0.092669811
   9.0639689  0.071486047
   9.2351141  0.085408388
   9.4045102  0.027198169
    9.564964  0.028443891
   9.7088781  0.037740464
   9.8486073  -0.05721895
   10.022843  0.033580523
   10.210965  0.031868024
    10.38111  0.021152194
   10.537838 -0.070322852
   10.678378  -0.01373624
    10.79906 -0.0059615126
   10.920646  -0.01530891
   11.047041 -0.025840954
   11.193591 -0.019389493
   11.340022 -0.039814625
   11.490725  0.043596528
   11.631611  0.046760065
   11.764552  0.074424231
   11.917662  0.084654328
    12.08582  0.015391995
   12.238145  0.048813599
   12.413844  0.083762784
   12.555924  0.052317423
   12.696881 -0.043300311
   12.831095 -0.013065975
   12.970885 0.0017203642
   13.096967 -0.029224369
   13.194161 0.0044776833
   13.325586  0.033561234
   13.465183 -0.0082968185
   13.612699  0.059392951
Loop time of 1.22358 on 4 procs for 10000 steps with 864 atoms

compute 9 all msd
compute 10 all vacf

thermo_style custom c_9[4] c_10[4]
thermo 100

run 10000
c_9[4] c_10[4]
           0    3.0473656
 0.027519918    1.7748099
 0.089441154   0.68727937
  0.16804488   0.40600177
  0.25827691   0.33496641
  0.35617472   0.18725669
  0.45643014   0.13280773
  0.55926126   0.10042203
  0.66499599  0.053294654
  0.77931889  0.057614855
  0.88933271  0.041819974
  0.99877909 0.0061678235
   1.1178681 -0.081247137
   1.2376648 0.0043765318
   1.3562653   0.04763042
   1.4716982 -0.039119985
   1.5929767 -0.010689335
   1.7240983  0.078940809
   1.8573031 -0.060458393
   1.9957006 -0.070183659
   2.1375915 -0.024654898
   2.2744792 -0.047496519
   2.3987445 -0.051920428
   2.5210389 -0.022807581
   2.6426336  0.038598665
   2.7712729  0.017885512
   2.8973633 -0.081109726
   3.0237842 -0.018775982
   3.1570802 -0.0053792782
   3.2998649 -0.010262616
   3.4416834 -0.005883662
   3.5765436  -0.08828467
   3.7226271 -0.0028288411
   3.8719391  0.012989401
   4.0244059 -0.015767317
   4.1790926     0.017723
   4.3493043   0.03503169
    4.536879   0.03979721
   4.7165697 -0.016249757
   4.8874962  0.061912317
   5.0446842  0.012600233
   5.1840214 -0.008681972
   5.3190251 -0.015413162
   5.4478396 -0.033693834
   5.5862531  0.044348476
   5.7500311  0.030855215
   5.8985139 -0.0013383885
   6.0503924 -0.024050633
   6.1968006 -0.0051728377
   6.3452307 -0.032097894
   6.4750635  0.014244299
   6.5915901  0.042864419
   6.7026271  0.041117973
   6.8120851 -0.057750871
   6.9114283 -0.0057880402
   7.0082922  0.049015997
     7.10389  0.048843637
   7.1783029  0.071456768
   7.2694015  0.023131483
   7.3714554  0.038035035
   7.4756232   0.07068503
   7.5965763  0.011497265
   7.7281565  0.060965085
    7.867381  0.035338509
   8.0002583  0.052521965
   8.1255533 -0.021345582
   8.2514639 -0.019239425
   8.3803369 -0.068691414
   8.5147422 -0.070728511
   8.6399025 -0.069426952
   8.7623374 -0.020741145
   8.8891907  0.057925641
   9.0028608  0.012874255
    9.102067  0.019484319
   9.1953824 -0.021327586
   9.3199517 -0.059902362
   9.4430249 -0.018201723
    9.554703   0.05822441
   9.7005995  0.010843899
   9.8448595  0.013723626
   9.9563929 -0.028923508
   10.073069  0.036909731
   10.208398   0.02608783
   10.370172  0.013098543
   10.536756  0.005839356
   10.668733  -0.04900621
   10.805996  -0.12754363
   10.953833 -0.051456915
   11.098998 0.0056459344
   11.253411  0.012699585
    11.39703   0.06398257
   11.523543   0.06709957
    11.64939 -0.069587025
   11.774679 -0.033219646
   11.885049 -0.047884475
   11.989802  0.039784293
   12.089498  0.063488391
   12.183731  0.042330503
    12.27216 -0.047938473
   12.354801 -0.0040758138
    12.45453 -0.018358034
Loop time of 1.19694 on 4 procs for 10000 steps with 864 atoms
