LAMMPS (29 Sep 2021 - Update 2)
#RDF

units		lj
boundary	p p p
atom_style	atomic

lattice		fcc 0.7
Lattice spacing in x,y,z = 1.7878071 1.7878071 1.7878071
region		box block 0 6 0 6 0 6
create_box	1 box
Created orthogonal box = (0.0000000 0.0000000 0.0000000) to (10.726842 10.726842 10.726842)
create_atoms	1 box
Created 864 atoms
mass		1 1.0

velocity	all create $T 87287 loop geom mom yes rot yes
velocity	all create 1 87287 loop geom mom yes rot yes
reset_timestep	0
timestep	0.001
pair_style	lj/cut 2.5
pair_coeff	1 1 1.0 1.0 2.5

neighbor	0.3 bin
neigh_modify	every 20 delay 0 check no
thermo		100

#Equilibration

fix		thermos all nvt temp $T $T 1.0
fix		thermos all nvt temp 1 $T 1.0
fix		thermos all nvt temp 1 1 1.0
run		50000
  update every 20 steps, delay 0 steps, check no
Step Temp E_pair E_mol TotEng Press
0            1   -5.2272486            0   -3.7289847   -4.5808285
Averages over the last 251 of 501 rows, steps 25000 to 50000:
Temp E_pair E_mol TotEng Press
0.997366 -4.52474 0 -3.03042 0.49799
Loop time of 11.7144 on 4 procs for 50000 steps with 864 atoms

unfix 	thermos

fix 	1 all nve

run 	20000
Step Temp E_pair E_mol TotEng Press
50000   0.98748524   -4.5212735            0     -3.04176   0.46536243
Averages over the last 101 of 201 rows, steps 60000 to 70000:
Temp E_pair E_mol TotEng Press
0.989538 -4.52435 0 -3.04176 0.516638
Loop time of 4.62867 on 4 procs for 20000 steps with 864 atoms

compute 1 all msd
compute 2 all vacf

thermo_style custom c_1[4] c_2[4]
thermo 100

run 10000
c_1[4] c_2[4]
           0    2.9537008
 0.024968954    1.1213319
 0.077582795   0.20816487
  0.13887651    0.1221228
  0.19953538   0.16996998
  0.25716399 -0.016676422
  0.31760207 -0.083059774
  0.38010026  -0.01652348
  0.44717971  0.077496369
  0.50899799 0.0062488081
  0.57021282  -0.02508902
  0.63348593   0.03380025
  0.69543577  0.059424897
  0.75452631  0.070375452
   0.8092751 -0.070755894
  0.86003056 -0.080730945
  0.91395992 0.0095281771
  0.97460464 -0.011147748
    1.033001 -0.056582028
     1.10078  0.039084195
   1.1739525  0.096443664
   1.2256996  0.031006257
   1.2805565  0.076189862
   1.3527929    0.1431602
    1.419403  0.053108586
   1.4688817 -0.050677836
   1.5209408  0.015494673
   1.5702301 -0.046897891
   1.6271263 -0.070485331
   1.6900487   0.11323788
   1.7428716  0.001758352
    1.792847  0.074110076
   1.8573163 -0.018497784
   1.9248474  -0.11660753
   1.9798702 -0.088783998
   2.0319594 -0.045540108
   2.0938103 -0.013205705
   2.1516449  0.060806733
   2.2242918   0.09852436
   2.2860486  0.055726383
   2.3381953 -0.029441588
   2.3918393  0.028308996
   2.4408964 -0.0083697918
   2.4894999 -0.052406367
   2.5462105 -0.085926172
   2.6086675  -0.11229942
    2.685951 -0.023942438
   2.7534148 -0.0048177938
   2.8199573 0.0023419334
   2.8925267 -0.0018376591
   2.9622825 -0.047278781
   3.0392994 -0.0025307224
   3.1258573  -0.11216502
   3.1966905  0.012650748
   3.2676327   0.10597848
   3.3508254   0.12214192
   3.4318516 -0.0068434645
   3.5030204 -0.039401198
   3.5798503  0.077000836
   3.6700383  0.087510422
   3.7625123  -0.10702614
   3.8493411  -0.01889156
   3.9371482 0.0017487781
   4.0126164 -0.020068873
   4.0731746 -0.015782469
   4.1190618  0.043206776
   4.1788009  0.079090212
   4.2386789  0.056125644
   4.3142775  0.071181821
   4.3832092  0.049396913
   4.4554929  0.013775972
   4.5315773 -0.024843777
   4.6041019  0.067688244
   4.6574431  0.079550101
   4.7168068 -0.0092871289
   4.7891076 -0.0028645133
   4.8687987  0.083689769
   4.9710289  0.035243944
   5.0382584 -0.017287635
   5.0910796 0.0073965444
   5.1541796 -0.0065585975
   5.2167286 -0.012187312
   5.2713314 -0.031779294
   5.3184961 -0.047533664
   5.3962724 -0.061406752
   5.4918205  0.013081069
   5.5678214   0.03039354
   5.6473381  -0.02851149
   5.7346675 -0.044281937
    5.808313 -0.052880976
   5.8690931 -0.052412463
   5.9291077 -0.073259577
   5.9795722 -0.013372829
   6.0326201  0.061050132
   6.0977724  0.086721834
   6.1541502  0.035178408
   6.2091138  0.016627067
    6.288898 -0.088190805
   6.3683154  -0.14060139
   6.4337969 0.0057918637
    6.521593  0.016207337
Loop time of 2.3148 on 4 procs for 10000 steps with 864 atoms

compute 3 all msd
compute 4 all vacf

thermo_style custom c_3[4] c_4[4]
thermo 100

run 10000
c_3[4] c_4[4]
           0    2.9391789
 0.024704883    1.0479754
 0.074347646   0.03423238
  0.12905337  0.033630233
  0.18502737 -0.0077887119
  0.24466977  0.041734842
  0.30868932 -0.082615914
  0.36875859 -0.030408762
  0.42830223 0.0047837562
  0.49196506 -0.073472796
  0.55722891 -0.054179799
  0.61468927 0.0067892275
  0.66746087 -0.073907152
  0.72457643 -0.065775304
  0.78646794  0.011600714
  0.84941158   0.12661274
   0.9183023  0.061004887
  0.97656486 -0.029012343
   1.0319003 -0.032860802
    1.098682 -0.073672889
   1.1612432  0.035383076
   1.2207534  0.052176541
   1.2864557 0.0084303035
   1.3520201  0.029289284
   1.4168706  0.084347415
   1.5020002  0.050883205
   1.5849695 -0.00048409036
   1.6592306 -0.052671392
   1.7336723 -0.016643065
   1.7976249  0.069645155
   1.8647181 -0.019727354
   1.9429051 -0.095465463
   2.0137293 -0.042382306
    2.065436 -0.014626321
   2.1266755   0.02533328
   2.1925872  0.032123722
   2.2597959 -0.0064583737
   2.3316001  0.056080076
   2.3931165  0.058297979
   2.4642414   0.05891344
     2.54503   0.10899545
   2.6212212  0.037631984
   2.6854477 -0.021241079
   2.7555585 -0.057864224
   2.8204996 -0.023546499
   2.8741249 -0.061362811
   2.9274164 -0.011692246
   2.9733738 -0.067538811
   3.0220391  -0.13184821
   3.0911851 -0.087659461
   3.1473283  0.096397327
   3.2022689  0.063928089
    3.270537  0.053141558
   3.3272607  0.043521322
   3.4022883  0.074009012
   3.4643557 -0.0037076206
   3.5308767    0.0710837
   3.6000383  0.079981952
   3.6608418 -0.015981634
   3.7013738 -0.014383725
   3.7404756  0.015835768
   3.7934746  0.035199723
   3.8615129   0.05517189
   3.9232151  0.045354809
   3.9786352 -0.043699336
   4.0411353 -0.0062196408
   4.1072597 -0.032215486
   4.1867255  -0.01473173
   4.2698554  0.025455187
   4.3611261  0.033117192
    4.435278  0.068509142
   4.5013898 -0.017027364
   4.5731525 -0.099214604
   4.6308668 -0.0046254514
   4.6929955  -0.01367739
    4.760736 -0.055570032
    4.839331  0.037283206
   4.8823785  0.026692369
   4.9313596  -0.03143609
   4.9843591 -0.037051267
   5.0390061  0.038066031
   5.1254045 0.00012960746
    5.212537 -0.021621937
   5.2916462   0.06467587
   5.3785928 -0.022676371
   5.4785621 0.0060125218
   5.5709046  0.019584389
   5.6416368 0.00087564001
    5.703982 -0.018976387
   5.7680198  -0.05019729
   5.8256398  -0.02377225
   5.8933357  0.063103356
   5.9626505 -0.014176784
   6.0244216 -0.0063401411
   6.1158635  0.039281031
   6.2067276  0.039730769
   6.2635973 -0.079013796
   6.3245378  0.017900761
   6.3987991  0.082720173
   6.4864371 -0.020658829
   6.5638596   -0.0249024
Loop time of 2.30028 on 4 procs for 10000 steps with 864 atoms

compute 5 all msd
compute 6 all vacf

thermo_style custom c_5[4] c_6[4]
thermo 100

run 10000
c_5[4] c_6[4]
           0     2.919686
 0.025108024    1.1783936
  0.07739321   0.14017817
  0.13296651 0.0091992559
   0.1883312  0.077200132
  0.24185742 -0.058144179
  0.29739189  0.008812946
  0.35816305   0.07539872
  0.41970095   0.10043118
  0.47832932  0.046583328
  0.53057766  0.051730573
  0.58803593   0.12436185
  0.64327561  0.072373507
  0.69133229 0.0039109536
  0.74786261 -0.070118289
  0.81241932 -0.005813533
   0.8808881  0.020609791
  0.95322587   0.10880435
   1.0243785 -0.064418766
   1.0932973 -0.023226671
    1.164963  0.050327846
   1.2314676 -0.073954997
   1.2910342  -0.11042188
   1.3550334 -0.053996767
    1.422495  0.035940784
   1.4870047  0.046050673
   1.5598269 -0.011820273
    1.629028   0.04350854
   1.6964174  0.016964875
   1.7596563 -0.029134603
   1.8080151 -0.071881014
   1.8576086 -0.032080883
   1.9293074 0.0021140104
   2.0019477  -0.10518177
   2.0708769  -0.11439895
    2.141027 -0.023247087
   2.2083279  0.054954309
   2.2793909  0.044531526
   2.3413993 -0.063296507
    2.398976    0.0157415
   2.4669191 -0.0039395004
    2.526297 -0.035736743
   2.5894601 -0.048926712
   2.6515345  0.053481648
   2.7038084 -0.045852787
   2.7486543   0.08508588
   2.8068522 0.0082383355
   2.8561263 -0.057336991
   2.9098612  0.003913564
   2.9766497  0.088829211
    3.045493  0.054525666
   3.1142529 0.0023750628
   3.1845549  0.045489159
   3.2399415  0.022061795
   3.2917294 -0.0021213333
   3.3405754  0.016251356
   3.3802261 -0.021436238
   3.4250829 -0.030243194
   3.4791516  -0.00492411
   3.5263845 0.0035536113
    3.570597  0.061029742
     3.62626  0.036892443
   3.6870073  -0.08078564
   3.7365567 -0.081107445
   3.7993958 -0.0061101558
   3.8714239  0.076298383
   3.9310073  0.014480991
   4.0039054 -0.0038886884
   4.0782096  0.029569221
   4.1420164  0.077903718
   4.2203786  0.066448289
   4.2930854 -0.0087391104
   4.3602844 -0.096670493
   4.4184374  -0.10579223
   4.4558405  -0.03127851
   4.4960073 -0.069200306
   4.5506375  0.022882742
   4.6106014  0.060905938
   4.6744517  0.013386124
   4.7287355  0.036132941
   4.7875628 -0.024923264
   4.8570226  0.054998288
   4.9164691  0.030422903
   4.9695821 -0.081755159
   5.0223218 -0.017027504
   5.0985969 -0.026341777
   5.1620453 -0.089256604
   5.2202526 -0.032984528
   5.2903439 -0.019572345
   5.3684694 -7.9531541e-06
   5.4324553 -0.075339155
   5.4923537 -0.066592193
   5.5625973 -0.036143987
    5.640697  0.070024184
   5.7112091  0.049745263
    5.785199 -0.0075587915
   5.8665477  -0.10517216
   5.9403769 -0.087263658
   5.9851718 -0.0081837054
   6.0493616 -0.034430298
   6.1154571 -0.0023006119
Loop time of 2.30524 on 4 procs for 10000 steps with 864 atoms

compute 7 all msd
compute 8 all vacf

thermo_style custom c_7[4] c_8[4]
thermo 100

run 10000
c_7[4] c_8[4]
           0    2.9638005
 0.025984031    1.2669738
  0.08091231   0.24993157
   0.1386236  0.036486084
  0.19207495  0.050362697
  0.24940621  0.089278225
  0.30546588  -0.01822474
  0.36267201 -0.078291532
  0.41745497 -0.054736696
  0.46987508 -0.040334709
  0.52433605  0.028027517
  0.58255254  0.026977652
  0.64302255 -0.0027832156
  0.70177991 -0.056256893
  0.76133245  0.059063188
  0.83282157   0.11237455
  0.90338597  0.067484189
  0.96468259 -0.0038146405
   1.0290686 -0.056141195
   1.0923511 -0.0024348711
   1.1547633 -0.0098993436
   1.2105419 0.00074723116
   1.2772946   0.03173043
   1.3450452  0.076423479
   1.4107979   0.15171382
   1.4740316  0.011549744
   1.5382285  -0.11740056
    1.613827 -0.060479723
   1.6772741 0.0081801103
   1.7333936  0.047481303
   1.8038635  0.016103068
   1.8871299 -0.0040393474
   1.9645278    0.0107394
   2.0365944 -0.014954261
   2.1055706 -0.069243129
   2.1670349   0.11353626
   2.2203388  0.021546346
   2.2791073  0.028956434
   2.3400861  0.028405889
    2.412089 -0.040785693
   2.4863714 -0.025633906
   2.5544724  0.056478348
   2.6229927  0.026286446
   2.6797062  0.016267774
   2.7416829 -0.048568842
   2.8108979    0.1081584
   2.8946504  0.070021038
   2.9719503  0.013694896
   3.0377586  0.030071735
   3.1071638 -0.028904942
   3.1875796 -0.051983905
   3.2476047  0.011614211
   3.3061679  0.025533578
   3.3514276  0.010273764
    3.406134  0.081973322
   3.4624682   0.07622899
   3.5129363   0.11211631
   3.5774271  0.025174921
   3.6403597 -0.011421114
   3.6988772  0.039447139
   3.7689379  0.034674737
   3.8490683  0.033032722
   3.9252204  0.023033431
   4.0126737    0.0269963
   4.0942136  -0.05443959
   4.1600272 -0.036753713
    4.198801 -0.059295748
   4.2411384 -0.030292139
   4.2957873  0.038995694
   4.3620245 -0.031245761
   4.4368079  -0.10598284
   4.5068037 -0.092496771
   4.5680669  0.012182375
   4.6243879  0.088262981
   4.6681802 -0.033495422
   4.7236906  0.032809804
   4.7791734 0.0025853863
   4.8397422  -0.05629447
   4.9094648  -0.11873563
   4.9790247 -0.029695146
   5.0573981  0.025719152
   5.1449758  0.031666725
   5.2155078  0.093563881
   5.2933275  0.053029343
   5.3610569  0.025625362
   5.4391203   0.04210076
   5.5171977  0.074031963
   5.5709045  0.053484245
   5.6242573   0.12205049
   5.7116944   0.16186808
   5.8065715  0.099589504
   5.8900097  0.035004622
   5.9655748 -0.077493756
   6.0317683 -0.034237816
   6.1005987  0.060139183
   6.1857702    0.1498805
   6.2535427  0.090982561
   6.3075723  0.027836944
   6.3735828 -0.099999177
   6.4537852 -0.045905019
   6.5367403 -0.023740682
Loop time of 2.28509 on 4 procs for 10000 steps with 864 atoms

compute 9 all msd
compute 10 all vacf

thermo_style custom c_9[4] c_10[4]
thermo 100

run 10000
c_9[4] c_10[4]
           0    2.9646908
 0.025254222    1.1560653
 0.077043287  0.055772705
  0.13340711   0.03037211
  0.19112063  0.090551432
  0.25002988  0.045028463
  0.30800152   0.11160837
  0.37187095 -0.013125757
  0.43917834 -0.013405295
   0.5038148 -0.065777562
  0.56410046 -0.072815757
  0.62667488 -0.045208358
  0.69258582 -0.020117271
  0.75519729  0.023744408
  0.81892827 0.0083761103
  0.87823535  0.039291375
  0.93708064 -0.090716883
  0.99050159 -0.059983679
   1.0405796 -0.045612912
   1.1021786 -0.013060118
   1.1594103 -0.040549046
   1.2249567 -0.082188419
   1.2910326  0.011240324
   1.3594792  0.080044672
   1.4342142   0.11418735
   1.5154284  0.081331752
   1.5898967  0.049660433
   1.6589896 -0.012450016
   1.7222962  0.084664366
   1.7938425  0.056022925
   1.8665637 -0.0077866188
   1.9331561 -0.050522814
   1.9866922 -0.0002525861
   2.0478578 0.0083960054
   2.1233965  0.063779467
     2.20114  0.047707087
   2.2683171 0.0054908837
   2.3215222  0.018899396
   2.3958137 -0.0010631483
     2.46537 -0.034587312
   2.5314892 -0.014853703
   2.5896781 -0.075503193
   2.6439805 -0.023517104
   2.6938932  -0.10093878
   2.7370051 -0.074083077
   2.7965737 -0.030620825
   2.8686472 -0.063733874
   2.9254286  0.028477978
   2.9709631  0.071613294
   3.0311374  -0.04122272
   3.0890224 -0.014103586
   3.1383697  0.070905135
   3.1947864  0.080638794
   3.2444443  0.011231255
   3.2908387  0.016043294
   3.3497532  0.039173999
   3.4145258   0.03679857
   3.4852486   0.11103172
   3.5426345 -0.00082959232
    3.585223   0.06654347
    3.649876  0.025974635
   3.7249678  0.059249716
   3.8207773  0.007909898
   3.9140758    -0.066968
   3.9893661  0.012498536
   4.0471052  0.099474462
   4.1067547 -0.00056228125
   4.1744248 -0.027312658
    4.233896 -0.034861864
   4.2910658  -0.11259376
   4.3606707 0.0094121018
   4.4380778  0.011505757
   4.5190171 -0.056904151
    4.596539  0.073226105
   4.6623615  0.029812795
   4.7270801  0.033732002
    4.781038 0.0090363314
   4.8349257 -0.078224615
   4.8945101 0.0030176179
   4.9678778 -0.079019987
   5.0405159 -0.041583905
   5.1011121 0.0050020668
   5.1658326 -0.0049781103
   5.2253548   0.11767869
   5.2763437  -0.02554737
   5.3225154 0.0053309894
    5.404038  0.018855814
   5.4873657 -0.00059741272
   5.5651613 -0.048751393
   5.6599634 -0.022019389
   5.7490183  0.045328531
    5.797052  0.018298615
   5.8314631 0.0043146408
   5.8703745 0.0050975398
   5.9243783  0.026678075
   5.9790913 -0.078238056
   6.0487003  0.047863433
   6.1422298  0.052814972
   6.2256451 -0.052351319
   6.3157115 -0.016434967
   6.3918282 -0.065991691
Loop time of 2.3169 on 4 procs for 10000 steps with 864 atoms
