LAMMPS (29 Sep 2021 - Update 2)
#RDF

units		lj
boundary	p p p
atom_style	atomic

lattice		fcc 0.7
Lattice spacing in x,y,z = 1.7878071 1.7878071 1.7878071
region		box block 0 6 0 6 0 6
create_box	1 box
Created orthogonal box = (0.0000000 0.0000000 0.0000000) to (10.726842 10.726842 10.726842)
create_atoms	1 box
Created 864 atoms
mass		1 1.0

velocity	all create $T 87287 loop geom mom yes rot yes
velocity	all create 1.0 87287 loop geom mom yes rot yes
reset_timestep	0
timestep	0.001
pair_style	lj/cut 2.5
pair_coeff	1 1 1.0 1.0 2.5

neighbor	0.3 bin
neigh_modify	every 20 delay 0 check no
thermo		100

#Equilibration

fix		thermos all nvt temp $T $T 1.0
fix		thermos all nvt temp 1.0 $T 1.0
fix		thermos all nvt temp 1.0 1.0 1.0
run		20000
  update every 20 steps, delay 0 steps, check no
Step Temp E_pair E_mol TotEng Press
0            1   -5.2272486            0   -3.7289847   -4.5808285
Averages over the last 101 of 201 rows, steps 10000 to 20000:
Temp E_pair E_mol TotEng Press
1.00032 -4.518 0 -3.01926 0.526814
Loop time of 2.97655 on 4 procs for 20000 steps with 864 atoms

unfix 	thermos

fix 	1 all nve

run 	20000
Step Temp E_pair E_mol TotEng Press
20000    1.0592478   -4.5446916            0   -2.9576588   0.52734728
Averages over the last 101 of 201 rows, steps 30000 to 40000:
Temp E_pair E_mol TotEng Press
1.03205 -4.50304 0 -2.95675 0.615269
Loop time of 2.93339 on 4 procs for 20000 steps with 864 atoms

dump		vel all custom  20 dump.* id x y z vx vy vz

run 12000
Step Temp E_pair E_mol TotEng Press
40000     1.049141   -4.5304073            0   -2.9585172   0.48441293
Averages over the last 61 of 121 rows, steps 46000 to 52000:
Temp E_pair E_mol TotEng Press
1.03 -4.50013 0 -2.95692 0.622036
Loop time of 2.15033 on 4 procs for 12000 steps with 864 atoms

unfix   1
