LAMMPS (29 Sep 2021 - Update 2)
#RDF

units		lj
boundary	p p p
atom_style	atomic

lattice		fcc 0.7
Lattice spacing in x,y,z = 1.7878071 1.7878071 1.7878071
region		box block 0 6 0 6 0 6
create_box	1 box
Created orthogonal box = (0.0000000 0.0000000 0.0000000) to (10.726842 10.726842 10.726842)
create_atoms	1 box
Created 864 atoms
mass		1 1.0

velocity	all create $T 87287 loop geom mom yes rot yes
velocity	all create 0.5 87287 loop geom mom yes rot yes
reset_timestep	0
timestep	0.001
pair_style	lj/cut 2.5
pair_coeff	1 1 1.0 1.0 2.5

neighbor	0.3 bin
neigh_modify	every 20 delay 0 check no
thermo		100

#Equilibration

fix		thermos all nvt temp $T $T 1.0
fix		thermos all nvt temp 0.5 $T 1.0
fix		thermos all nvt temp 0.5 0.5 1.0
run		20000
  update every 20 steps, delay 0 steps, check no
Step Temp E_pair E_mol TotEng Press
0          0.5   -5.2272486            0   -4.4781167   -4.9304234
Averages over the last 101 of 201 rows, steps 10000 to 20000:
Temp E_pair E_mol TotEng Press
0.493249 -5.46151 0 -4.72249 -0.573747
Loop time of 3.44249 on 4 procs for 20000 steps with 864 atoms

unfix 	thermos

fix 	1 all nve

run 	20000
Step Temp E_pair E_mol TotEng Press
20000   0.50841631   -5.5205744            0   -4.7588327  -0.46334634
Averages over the last 101 of 201 rows, steps 30000 to 40000:
Temp E_pair E_mol TotEng Press
0.500643 -5.50795 0 -4.75786 -0.530062
Loop time of 3.74035 on 4 procs for 20000 steps with 864 atoms

compute 1 all msd
compute 2 all vacf

thermo_style custom c_1[4] c_2[4]
thermo 100

run 10000
c_1[4] c_2[4]
           0     1.502219
 0.012898004   0.53983278
 0.037441791  -0.12813062
 0.059346629 -0.098727378
 0.077522667 -0.064310612
 0.094005543 -0.048465498
  0.11011731 -0.093953404
  0.12440361 -0.085144179
  0.13854677 -0.076231094
  0.15236335 -0.056987204
  0.16859108 0.0015840841
  0.18593909 0.0036149316
  0.20123684 -0.020012592
  0.21922127 -0.0098238507
  0.23792576   0.01322601
  0.25170399  0.024689566
  0.26311337  0.013306084
  0.27372652 0.0059023158
  0.28831165 -0.0040057441
  0.30545899 -0.054860378
  0.32228093 -0.015808694
  0.33575614  0.028226836
  0.34862612 -0.020553638
  0.36253978 -0.035769654
  0.37701214   0.02389404
  0.39095149  0.010881226
   0.4095049 -0.032877159
  0.42854663 -0.023346185
  0.44562897  0.027991765
  0.46337058  0.043277092
  0.47842813 0.0009774074
  0.49281023   0.01546627
  0.50778997  0.001930321
  0.52514611 -0.036717103
  0.54121872  0.022228936
  0.55774767  0.087380874
  0.57990992  0.025422399
  0.60722151  0.040805341
  0.63273251 0.0021221025
  0.65211653  -0.05607038
  0.67113071 -0.038263649
  0.68954603  0.034126125
  0.70450691  -0.02520208
  0.71903739 -0.054517718
  0.73304701 0.0029636272
  0.74831542 0.0048423152
  0.76559092  0.027929298
  0.78143008  0.033894181
  0.80035695 0.0020121412
  0.81923471 -0.017785297
  0.83365176  0.033694529
  0.84418538  0.039610579
  0.85605203   0.03183094
  0.87039852 -0.0095534503
  0.88760435 -0.014634301
   0.9126229 -0.012090885
  0.93313312 -0.016646745
  0.94642772   0.02194245
  0.95889141  0.014466046
  0.97217925 0.00025844622
  0.98323363  0.061088659
  0.99706227  0.021509984
   1.0148657  0.034685824
   1.0330629  0.043170596
    1.052561  -0.01769365
   1.0770101  0.025892003
   1.0953296  0.039906249
   1.1091896  0.001000656
   1.1243121  0.021471383
   1.1401888 -0.0041947581
    1.154045  -0.05355652
   1.1708238  0.019427718
   1.1901258    0.0753379
   1.2049431  0.045635488
   1.2192162 0.0025218474
   1.2369917 -0.018507299
   1.2543851  0.038290971
   1.2714118  0.024715896
   1.2931979 -0.0080840824
   1.3087679 -0.0031921238
   1.3229278 -0.016927612
   1.3345674 -0.049583751
   1.3476428 -0.0011988374
   1.3691075  0.025546244
   1.3914066 8.8066141e-05
   1.4151319 -0.026108599
   1.4377076 -0.063387354
   1.4544045 -0.043014168
   1.4677271  0.042912419
   1.4828363  0.029128458
   1.5040635  0.040069869
   1.5239285   0.02588556
   1.5347466 -0.057261313
   1.5497921 -0.0025547253
   1.5642235  0.054598968
   1.5810342  0.044801692
   1.6006258 0.0049321848
    1.613085 -0.047581735
   1.6243263 -0.00012237642
   1.6433395  0.052225047
   1.6659375  0.042848873
Loop time of 1.87133 on 4 procs for 10000 steps with 864 atoms

compute 3 all msd
compute 4 all vacf

thermo_style custom c_3[4] c_4[4]
thermo 100

run 10000
c_3[4] c_4[4]
           0    1.5189807
 0.012707201   0.43487437
 0.035508053  -0.19464236
 0.055345613  -0.13428745
 0.073532783 -0.063748387
 0.091781029 -0.064558968
   0.1091492 -0.042249744
  0.12750844 -0.036761151
  0.14587412 -0.00045625219
   0.1622052 0.00080237532
  0.17741331  0.049159631
  0.19597415  0.012571994
  0.21480564 -0.0075005142
  0.23161356 0.0047378712
  0.24788167 0.0014816607
  0.26477202 0.0054571561
   0.2814565 -0.028836434
  0.29875563 0.0029822516
  0.31457214  0.015391333
  0.33082996 -0.030227166
  0.34610943 -0.010808259
  0.36149422  0.028322931
  0.37870017  0.014804237
  0.39805845   0.03170087
  0.42038246 0.0060848461
  0.44032924 -0.029042242
  0.45627406  0.010387918
    0.474707  0.016569685
   0.4963627 -0.0042943433
  0.51511876  0.026018098
  0.53074218  0.028585083
  0.54306351    0.0677991
  0.55702294 0.0091628098
  0.57630859 -0.021276131
  0.59103821  0.067163576
  0.60170256   0.03410674
  0.61311028 -0.026563415
    0.627234 0.0075154629
  0.64325194  0.036683553
  0.66302633  0.010561284
  0.68128368 -0.020910477
  0.69812679 -0.026967906
  0.71619427 -0.036334769
  0.73334944   0.01282334
  0.75058443  0.051698447
   0.7700852  0.054901677
  0.78885387 -0.015160956
  0.80399267 -0.0048175598
  0.81741098  0.026683515
  0.83201309 -0.0018283217
  0.84473645  0.018226253
   0.8596445  0.025631799
  0.87843943 -0.0024576666
  0.89952119  0.027375109
  0.91815825 -0.0011376131
  0.93634603 -0.021732026
  0.95456561 -0.026346237
  0.96650175 -0.045455921
  0.98125731 -0.0065739831
  0.99970598  -0.02505148
   1.0169171 -0.055410806
   1.0332084 0.0063661562
   1.0510171 -0.0028461683
   1.0641835 -0.022162414
   1.0788434  0.024759674
   1.0998848  0.028033596
   1.1236872 -0.016934486
   1.1448037 -0.010670683
   1.1637508  0.046395591
   1.1810012  0.030505354
   1.1926272  0.005432401
   1.2046516 -0.036870796
   1.2218513 -0.0078995453
   1.2306596  0.014988495
   1.2349047 -0.021764325
   1.2465953  0.012496045
   1.2642231 0.0046956803
   1.2794266  -0.03089984
   1.2985733 -0.016873045
   1.3179447 0.0024894674
   1.3276015 0.0095356408
   1.3344969  0.020498609
   1.3445567 -0.042531881
   1.3608742  0.014673334
   1.3826969 -0.0076051567
   1.4002748   0.03121461
   1.4087019  0.018704726
   1.4192037 -0.024802631
   1.4298126 -0.022007301
   1.4392515  0.022087708
    1.453435  0.021514473
   1.4699206  0.040250866
   1.4862557    0.0271655
   1.4967829 -0.028432515
   1.5086257 -0.064573402
   1.5207546  -0.03766127
   1.5329918  0.013099287
    1.542325  0.045310238
   1.5641166  0.025016092
    1.586045  0.034718702
   1.6048738  0.033360815
Loop time of 1.87768 on 4 procs for 10000 steps with 864 atoms

compute 5 all msd
compute 6 all vacf

thermo_style custom c_5[4] c_6[4]
thermo 100

run 10000
c_5[4] c_6[4]
           0    1.5337364
  0.01294114   0.50374045
 0.036904461  -0.12289282
 0.059931842  -0.06399023
  0.08045555  0.027326232
  0.10041768 -0.058534974
  0.12012086 -0.051239772
  0.13865896 -0.011439431
  0.15554423 0.00013330209
  0.17286056  0.028564245
  0.18972789 -0.033472181
  0.20618151 -0.036071653
  0.22190159 -0.0019776952
  0.23733868  0.024837491
  0.25233789 0.0058347376
  0.26881903   0.01265938
  0.28640352 -0.0024617702
  0.30292699  0.019132781
   0.3158722  0.035618069
  0.32830468 0.0024230341
  0.34338242 -0.0038353077
  0.36037942 0.0045898921
  0.37624223 -0.013009013
  0.38863706 -0.096875219
  0.40060244 -0.056577186
  0.41530147 -0.0087548627
  0.43239339 -0.010532832
  0.45089989  0.068130932
  0.46834037   0.10782233
  0.48393809 0.00064099052
    0.499845 -0.028975259
  0.51841607 -0.020230654
  0.53672345 -0.044278707
  0.55248953  0.025899371
  0.57080438  0.056343621
  0.58692458   0.01295083
  0.60170278 -0.030636584
  0.61803005 -0.022490721
  0.63869467 0.0090625392
  0.65401454  0.026451394
  0.66809035  0.028360726
  0.68395059  0.052381704
  0.69945936  0.048190552
  0.71334781  -0.04303754
  0.72557002  0.015588214
  0.73364923 -0.030078795
  0.74272017 -0.013605411
  0.75885962 0.0034038443
  0.77642746  0.010931623
  0.79465966 -0.024511102
  0.81221269  -0.02461488
  0.83321257 -0.027365137
  0.85287809 -0.037546651
  0.86534579 -0.018533115
  0.87912899 -0.010230693
  0.90160593 -0.027000238
  0.92464066 -0.023284817
  0.94293142  0.013467581
  0.95705643 0.00092533548
  0.97026118 -0.030613599
  0.99063986  0.028227534
   1.0111963 0.0056770919
   1.0231378 -0.018832102
   1.0330879  0.013633137
   1.0455131 -0.030069214
   1.0592287 -0.025036125
   1.0739515  0.054238142
   1.0814299 0.0065967973
   1.0925519 -0.001239708
   1.1083051   0.01239587
   1.1259786  0.013656252
   1.1486252  0.026563864
   1.1730617  0.023809324
   1.1926241 0.0099274181
   1.2032178 -0.0094302182
   1.2108869 -0.045215831
    1.224083 0.0029879811
   1.2384674   0.01854096
   1.2598994  0.027478327
   1.2807207  0.049189025
   1.2956382 -0.020163175
   1.3158546 -0.062712491
   1.3363483  -0.03434578
   1.3509504  0.026500051
   1.3581611  0.065131764
   1.3656519  0.039649466
   1.3810653  0.047657666
   1.3949455  0.013867329
   1.4057747 -0.078785728
   1.4114694 3.8060946e-05
   1.4119995 0.0082971246
   1.4215366 -0.038372731
   1.4369741 0.0071623298
   1.4504537  0.015382628
      1.4674 -0.020260235
   1.4912299 -0.0020523237
    1.511631 -0.018571371
   1.5256211 0.0075601172
    1.534383  0.029096846
   1.5511406 -0.0094796713
   1.5748781 -0.018091851
Loop time of 1.85193 on 4 procs for 10000 steps with 864 atoms

compute 7 all msd
compute 8 all vacf

thermo_style custom c_7[4] c_8[4]
thermo 100

run 10000
c_7[4] c_8[4]
           0    1.4393572
 0.012759246   0.54514426
 0.037193523  -0.11754867
 0.061422904 -0.047672381
 0.082876117 -0.019510161
  0.10201775 -0.079140499
  0.12044452  -0.05024402
  0.13791191  -0.01870804
  0.15720229  0.020079673
  0.17278926  0.017263405
  0.18814746  0.050911376
  0.20531674 -0.017319863
  0.22288339 -0.0094563409
  0.24110267  0.019616198
  0.26106623 -0.013813747
  0.28234938  0.035954403
  0.30137997 -0.0047377865
   0.3182203 -0.0067014594
  0.33542931 -0.015494907
  0.35142103 5.4032428e-05
  0.36634186  0.012240357
  0.37922754  0.021815002
  0.39032988  0.011008295
  0.40524141 0.0076992839
  0.42402465 -0.010086413
  0.44181592 -0.068751842
  0.46121425 -0.019510766
  0.48020951 -0.014801844
  0.49773145 -0.033858601
   0.5141607 -0.011150731
  0.53040788  0.018064209
  0.54754992   0.02877453
  0.56837886  0.028653846
  0.58607515 -0.0077354208
  0.59814759 -0.028826755
  0.60861707  0.039784236
  0.62598374  0.024590432
   0.6450527 -0.024488227
  0.66153685 -0.067200233
  0.67394672 -0.049047812
  0.68837436 0.00010216106
  0.70418017  -0.02250381
  0.72415839 -0.043333068
  0.74105766  -0.05062779
  0.75627179  0.010477308
  0.77204029 0.0014052536
  0.78760846  0.046775814
  0.80010558 0.0097834133
  0.81478007 -0.018718892
  0.83096878  0.016866171
  0.84601284  0.036177395
  0.86689709 -0.0015027911
  0.88852836 -0.030419984
  0.90452809 -0.033077561
  0.91529694  0.052727028
  0.92730083 -0.0084574944
   0.9414889 -0.0090596405
  0.95767447 -0.001969997
  0.97187951 -0.013210952
  0.98713525 -0.020418653
   1.0057158 -0.018975624
   1.0237831 -0.049214124
   1.0383186 -0.011993841
    1.049803  0.025080449
     1.06281 -0.029008354
   1.0813806 -0.0080647854
   1.0992569    -0.021885
    1.118646 -0.043727368
   1.1316404 -0.020874319
   1.1411869  0.012434782
   1.1477005   0.01518403
   1.1589052  0.026641196
   1.1754316  0.032465011
   1.1943499 -0.014341796
   1.2064465 -0.066660526
   1.2192435 -0.0097792879
    1.233013  0.013019652
   1.2451642 -0.00014504143
   1.2585355  0.037092914
   1.2779976  0.045049982
   1.2971467  0.007188543
   1.3128082 -0.025316793
   1.3293014 -0.022740025
   1.3444894 -0.052826728
   1.3602148 -0.017123874
   1.3798637 -0.0019977583
    1.400008  0.034300335
   1.4166043  0.013009032
   1.4294433 -0.066537732
   1.4405015 -0.059783898
   1.4542849 0.0088104771
   1.4636583 0.0011961764
   1.4733374 0.0017258973
   1.4846377  0.011061079
    1.501985 -0.048161073
   1.5187473 -0.048528627
   1.5333492  0.017513452
   1.5471706    0.0155147
   1.5605584  0.023037979
   1.5860833  0.019887994
   1.6093113 -0.034149837
Loop time of 1.84295 on 4 procs for 10000 steps with 864 atoms

compute 9 all msd
compute 10 all vacf

thermo_style custom c_9[4] c_10[4]
thermo 100

run 10000
c_9[4] c_10[4]
           0    1.4416148
 0.012503721   0.47729476
 0.036169479  -0.13064468
 0.057078656   -0.1289749
 0.077303352 -0.041316836
 0.098216052 -0.0031791941
  0.11676891 -0.0046445552
  0.13428215   0.02302821
   0.1526416  0.016136895
  0.16943629 -0.0088940221
  0.18312245 -0.019480448
  0.19677693 -0.043162532
  0.21342072 -0.020987452
  0.23064011  0.012306941
  0.24607989  0.028934545
  0.25981782 -0.012517855
  0.27243262 -0.016382602
  0.28485353 0.0041850709
  0.29624774  -0.01977197
  0.31218781 0.0039693332
  0.32926771 0.0018930016
  0.34642579 -0.031878631
  0.36279868  0.055003264
  0.37904474  0.035795839
  0.39853853  0.030717988
  0.41859026  0.046011797
  0.43647911  0.011944235
  0.45476323 -0.001227022
  0.47004455 -0.013970659
  0.48438526 0.0052091822
  0.50194964  0.022740168
  0.52031901  0.025437176
  0.53385448  -0.01314191
  0.54867879 -0.022328647
  0.56670673 0.0011342495
  0.58596412 0.0056304821
  0.59928439 0.0042115053
  0.61386966 0.0022134494
   0.6278299 -0.0066651046
  0.63831217 -0.022548234
  0.64900304 -0.020597223
   0.6589522 -0.0014106839
  0.66930191 0.00017467704
   0.6796479 -0.020253526
  0.69054188  0.021800595
  0.70311249 0.0071757541
   0.7143979 -0.038071745
  0.72604895 0.0061715657
  0.74036537 -0.015891721
  0.75580718 -0.018075305
  0.77052252  0.052872196
    0.784106  0.054569933
  0.79987902  0.011021441
  0.81772936  0.052210992
  0.82718155  0.040889762
  0.83819717  0.046821111
  0.84919854  0.027397807
  0.86507038 -0.0055358592
  0.87952635  0.027544151
  0.88815548 -0.0023137979
  0.90076307  -0.02639696
  0.91590918 -0.032735134
  0.92949365 -0.011501235
  0.94880003 -0.020668226
  0.96792825  0.047749334
  0.98359567  0.030671072
  0.99707637  0.040800009
   1.0105599 0.0088680614
   1.0277473 -0.030946549
   1.0445222 -0.046425648
   1.0651602 -0.0085012407
   1.0850358 -0.010505645
   1.0992108 -0.022621589
    1.112309 -0.016184227
   1.1236844  0.023085394
   1.1358779 0.0095796576
   1.1557568 -0.021725395
    1.176336  0.011545906
    1.193313  0.020195877
   1.2065707 -0.0061499172
    1.228808  0.023902261
   1.2580167  0.029213546
   1.2821803 -0.0010685768
   1.2936291  0.015393214
   1.3049083 -0.0071945606
   1.3140072 -0.030957175
   1.3252844 -0.036340746
   1.3440403  0.010937026
   1.3649325 -0.018197296
   1.3833853 -0.021031738
   1.3982015 -0.012617717
   1.4092657 0.00072351239
   1.4269617 -0.0018234466
   1.4489326  0.027042974
   1.4652375 -0.0090424555
   1.4821936  0.010374627
   1.4962519  0.015273886
   1.5045221 -0.027072386
   1.5204435 0.0012268367
   1.5324301  0.024390165
   1.5472211   0.03957488
Loop time of 1.85722 on 4 procs for 10000 steps with 864 atoms
