LAMMPS (29 Sep 2021 - Update 2)
#RDF

units		lj
boundary	p p p
atom_style	atomic

lattice		fcc 0.7
Lattice spacing in x,y,z = 1.7878071 1.7878071 1.7878071
region		box block 0 6 0 6 0 6
create_box	1 box
Created orthogonal box = (0.0000000 0.0000000 0.0000000) to (10.726842 10.726842 10.726842)
create_atoms	1 box
Created 864 atoms
mass		1 1.0

velocity	all create $T 87287 loop geom mom yes rot yes
velocity	all create 1 87287 loop geom mom yes rot yes
reset_timestep	0
timestep	0.001
pair_style	lj/cut 2.5
pair_coeff	1 1 1.0 1.0 2.5

neighbor	0.3 bin
neigh_modify	every 20 delay 0 check no
thermo		100

#Equilibration

fix		thermos all nvt temp $T $T 1.0
fix		thermos all nvt temp 1 $T 1.0
fix		thermos all nvt temp 1 1 1.0
run		10000
  update every 20 steps, delay 0 steps, check no
Step Temp E_pair E_mol TotEng Press
0            1   -5.2272486            0   -3.7289847   -4.5808285
Averages over the last 51 of 101 rows, steps 5000 to 10000:
Temp E_pair E_mol TotEng Press
1.00018 -4.51098 0 -3.01244 0.552005
Loop time of 1.4971 on 4 procs for 10000 steps with 864 atoms

unfix 	thermos

fix 	1 all nve

run 	20000
Step Temp E_pair E_mol TotEng Press
10000     1.017933   -4.4588305            0   -2.9336982   0.77573549
Averages over the last 101 of 201 rows, steps 20000 to 30000:
Temp E_pair E_mol TotEng Press
1.03803 -4.49062 0 -2.93538 0.636568
Loop time of 2.9574 on 4 procs for 20000 steps with 864 atoms

compute 1 all msd
compute 2 all vacf

thermo_style custom c_1[4] c_2[4]
thermo 100

run 10000
c_1[4] c_2[4]
           0    3.1630881
 0.027052277     1.312197
  0.07955515   0.10480049
  0.13331291  0.044153562
  0.19431472  0.042612815
  0.25603959   0.10698617
  0.31631783 -0.015602088
  0.37877044  0.025821601
  0.44640197   0.19750361
  0.52001642   0.08716523
  0.59968836  0.088292247
  0.67624324  0.010413392
  0.75533984  0.036120285
  0.83287098   0.08212881
  0.89576246   0.12676788
  0.95051352 -0.024555408
   1.0006856 -0.00093938797
   1.0507591  0.059379042
    1.113422  0.082923313
   1.1861217  0.059945375
   1.2533866 -0.012255083
   1.3160148 0.00031317954
   1.3730405  -0.11955382
   1.4282934  -0.06387178
   1.4980887 -0.015033771
   1.5693892 -0.022504888
   1.6481186  0.021672006
   1.7255997  0.025755115
   1.7996403 -0.014761365
   1.8707035 -0.072456279
   1.9392248  0.026080569
    2.008281 -0.029468389
   2.0710738  -0.12291715
   2.1433533 -0.0050920499
   2.2173584  0.018584017
   2.2880317  0.099363981
   2.3592558  0.048491751
   2.4353359 0.0028616519
   2.5105901  0.071831857
   2.5698342 0.0057049205
   2.6330129 -0.016615329
   2.6977053 -0.002206618
   2.7511767    0.0492375
   2.7952316  0.062992022
   2.8414189  0.049560755
   2.8983522  0.049571852
   2.9591764  0.024907012
   3.0134181  0.040331802
   3.0732926  0.065743623
   3.1377238 0.0046867664
   3.2023362  0.055200958
   3.2556588 -0.012600155
   3.3150518  0.017842639
   3.3651292  0.045707945
   3.4429674 -0.028021808
   3.5155499  0.050515896
   3.5997915 -0.040755293
    3.682657  -0.13097565
   3.7470691  -0.10654164
    3.819476 -0.079839951
   3.9050674 0.0037432892
   3.9819661 -0.0014953074
   4.0519034 -0.085831546
   4.1239757  0.057703406
   4.1935037 -0.00079224271
   4.2529455  -0.10630698
   4.3266138  0.027343062
   4.4166918  0.015770635
   4.5077601 -0.0034879885
   4.5945875   0.12564564
    4.673751 -0.009004279
   4.7709807  0.012028761
   4.8628269 -0.0054971764
    4.923711   0.01036274
   4.9843758  0.048548815
   5.0423139  0.073553442
   5.1190052 -0.0047520199
   5.2067885 -0.020924374
   5.2759414 -0.043974718
   5.3449189  0.076195312
   5.3922087 -0.076074524
   5.4276404  -0.06431641
   5.4690482 -0.074765364
    5.509751 -0.00099940325
    5.557372 -0.011522092
   5.5989246  -0.12836788
    5.661486  -0.09727453
   5.7206559 -0.057098871
    5.783122  0.031560417
   5.8399452  0.075528983
   5.9071339   0.10065642
   5.9846441   0.08172905
   6.0543698 -0.013165114
   6.1166068 -0.054764635
   6.1794428 -0.034914183
   6.2383413  -0.12261336
   6.3235836  0.088327875
   6.4219186    0.1094106
   6.5098118  0.050751568
   6.5772548  0.098979717
   6.6285883 -0.00068562184
Loop time of 1.47552 on 4 procs for 10000 steps with 864 atoms
