LAMMPS (29 Sep 2021 - Update 2)
#RDF

units		lj
boundary	p p p
atom_style	atomic

lattice		fcc 0.7
Lattice spacing in x,y,z = 1.7878071 1.7878071 1.7878071
region		box block 0 6 0 6 0 6
create_box	1 box
Created orthogonal box = (0.0000000 0.0000000 0.0000000) to (10.726842 10.726842 10.726842)
create_atoms	1 box
Created 864 atoms
mass		1 1.0

velocity	all create $T 87287 loop geom mom yes rot yes
velocity	all create 1 87287 loop geom mom yes rot yes
reset_timestep	0
timestep	0.001
pair_style	lj/cut 2.5
pair_coeff	1 1 1.0 1.0 2.5

neighbor	0.3 bin
neigh_modify	every 20 delay 0 check no
thermo		100

#Equilibration

fix		thermos all nvt temp $T $T 1.0
fix		thermos all nvt temp 1 $T 1.0
fix		thermos all nvt temp 1 1 1.0
run		1000
  update every 20 steps, delay 0 steps, check no
Step Temp E_pair E_mol TotEng Press
0            1   -5.2272486            0   -3.7289847   -4.5808285
Averages over the last 6 of 11 rows, steps 500 to 1000:
Temp E_pair E_mol TotEng Press
0.707535 -4.72508 0 -3.66501 -0.528422
Loop time of 0.146948 on 4 procs for 1000 steps with 864 atoms

unfix 	thermos

fix 	1 all nve

run 	20000
Step Temp E_pair E_mol TotEng Press
1000   0.71963838   -4.7008027            0   -3.6225945  -0.34795576
Averages over the last 101 of 201 rows, steps 11000 to 21000:
Temp E_pair E_mol TotEng Press
0.731103 -4.71795 0 -3.62256 -0.392133
Loop time of 2.92845 on 4 procs for 20000 steps with 864 atoms

compute 1 all msd
compute 2 all vacf

thermo_style custom c_1[4] c_2[4]
thermo 100

run 10000
c_1[4] c_2[4]
           0    2.2087053
 0.018996887   0.95715129
 0.060389234   0.16045555
  0.10746755    0.1294259
  0.15407494  0.091001345
  0.20505038  0.050843722
  0.25425008  0.064953458
  0.30197621  0.036770249
  0.34852076 0.0080408928
  0.39438614  0.016643693
  0.43850529  0.048696008
   0.4860666  0.087859459
  0.53740361  0.055002784
  0.59066328  0.018149016
  0.63885167  0.015915359
  0.68520238 0.00053273455
  0.73265987 -0.070208317
  0.77780676 -0.028309113
  0.82146052 -0.0024254713
  0.86730273  0.054722929
  0.91269308 -0.0056274159
  0.95814845  -0.06166483
  0.99429411  0.013788917
   1.0328858 0.0084813807
   1.0701556 -0.037013429
   1.1063136 -0.055027017
    1.145422 -0.017926372
   1.1745071  0.011782519
   1.2085274  0.091944855
   1.2502194  0.088403813
   1.2891964  0.021275677
   1.3267558  0.016334554
   1.3634835 -0.011022395
   1.3972474 -0.049893763
   1.4356735 -0.0096764787
   1.4820928 -0.051444965
   1.5318269 -0.091304977
   1.5834901 -0.020943707
   1.6362781  0.023351614
   1.6898901  0.059653011
   1.7406347 0.0081425534
   1.7855406  0.049790137
   1.8358278  0.070899426
   1.8900136 -0.023902525
   1.9439969 -0.017583332
   1.9874633 -0.068616362
   2.0310039 -0.046141853
   2.0842739 -0.0043043156
    2.142048  0.026707934
   2.1920676  0.038948653
   2.2374341  0.018151464
   2.2646593 -0.00059926213
   2.2976987 -0.040547268
   2.3394043 -0.040544817
   2.3790265  0.030483302
   2.4179258  0.050738095
   2.4545987  -0.01577365
   2.4879368 -0.059455461
   2.5245633 -0.031829463
   2.5589088  0.023978324
     2.59088  0.027746525
   2.6275943  0.088891249
   2.6668391   0.07724679
   2.7026928  0.029744001
   2.7279193  -0.01798186
   2.7651938 -0.017400727
   2.8072193 -0.0099035233
   2.8419729 -0.056364614
   2.8864792  -0.01774008
   2.9375903 -0.031341929
   2.9968727  0.024417535
   3.0591093 -0.019705193
   3.1073565 -0.019109874
   3.1533609 -0.047206687
   3.2060409   -0.0574065
   3.2508431  0.039649821
    3.290003  0.049206081
   3.3389418  0.084258758
   3.3999638   0.04858654
   3.4619395 0.0064439685
   3.5088543 -0.018583805
   3.5509558  0.043264764
   3.5885648  0.052621253
   3.6301961  0.055879629
    3.678407  0.057600848
   3.7171835  0.028072898
   3.7579454  0.028516743
   3.8138973 -0.039439981
    3.872673 -0.061607449
   3.9238347 -0.065328373
   3.9686596 -0.051635089
   4.0265368  0.038330428
   4.0785058  0.032765132
   4.1243816 -0.040232691
   4.1727949 -0.00018988848
   4.2201295 0.0044371139
   4.2818212 -0.012651917
   4.3521577  0.043584577
   4.4299793  0.093674618
   4.4924933  0.054627397
   4.5506099  0.071235244
Loop time of 1.44828 on 4 procs for 10000 steps with 864 atoms
